MODEL 1
REMARK VINA RESULT:      -7.3      0.000      0.000
REMARK  Name = 
REMARK  3 active torsions:
REMARK  status: ('A' for Active; 'I' for Inactive)
REMARK    1  A    between atoms: C_2  and  C_3
REMARK    2  A    between atoms: C_2  and  N_18
REMARK    3  A    between atoms: C_3  and  N_4
REMARK                            x       y       z     vdW  Elec       q    Type
REMARK                         _______ _______ _______ _____ _____    ______ ____
ROOT
ATOM      1  N   UNL     1       1.294   6.597  -5.199  0.00  0.00    -0.285 N 
ATOM      2  C   UNL     1       2.541   6.659  -4.523  0.00  0.00    +0.058 A 
ATOM      3  C   UNL     1       2.667   6.523  -3.147  0.00  0.00    +0.043 A 
ATOM      4  C   UNL     1       3.482   7.396  -2.436  0.00  0.00    +0.008 A 
ATOM      5  C   UNL     1       4.570   7.903  -3.135  0.00  0.00    +0.001 A 
ATOM      6  C   UNL     1       4.773   7.555  -4.466  0.00  0.00    +0.001 A 
ATOM      7  S   UNL     1       1.316   5.670  -2.322  0.00  0.00    -0.084 S 
ATOM      8  C   UNL     1      -0.148   6.160  -3.240  0.00  0.00    +0.043 A 
ATOM      9  C   UNL     1      -1.190   6.649  -2.460  0.00  0.00    +0.008 A 
ATOM     10  C   UNL     1      -2.164   7.485  -2.992  0.00  0.00    +0.001 A 
ATOM     11  C   UNL     1      -2.198   7.546  -4.375  0.00  0.00    +0.001 A 
ATOM     12  C   UNL     1      -1.086   7.211  -5.106  0.00  0.00    +0.015 A 
ATOM     13  C   UNL     1       3.674   7.139  -5.164  0.00  0.00    +0.015 A 
ATOM     14  C   UNL     1       0.059   6.714  -4.495  0.00  0.00    +0.058 A 
ENDROOT
BRANCH   1  15
ATOM     15  C   UNL     1       1.245   6.659  -6.649  0.00  0.00    +0.111 C 
BRANCH  15  17
ATOM     16  C   UNL     1       0.224   5.531  -8.474  0.00  0.00    +0.019 C 
ATOM     17  C   UNL     1       1.115   5.106  -7.160  0.00  0.00    +0.078 C 
BRANCH  17  18
ATOM     18  N   UNL     1       2.443   5.141  -7.991  0.00  0.00    -0.270 NA
ATOM     19  C   UNL     1       2.651   3.934  -8.650  0.00  0.00    +0.090 C 
ATOM     20  C   UNL     1       2.509   6.353  -8.700  0.00  0.00    +0.090 C 
ENDBRANCH  17  18
ENDBRANCH  15  17
ENDBRANCH   1  15
TORSDOF 3
ENDMDL
MODEL 2
REMARK VINA RESULT:      -7.1      4.305      8.307
REMARK  Name = 
REMARK  3 active torsions:
REMARK  status: ('A' for Active; 'I' for Inactive)
REMARK    1  A    between atoms: C_2  and  C_3
REMARK    2  A    between atoms: C_2  and  N_18
REMARK    3  A    between atoms: C_3  and  N_4
REMARK                            x       y       z     vdW  Elec       q    Type
REMARK                         _______ _______ _______ _____ _____    ______ ____
ROOT
ATOM      1  N   UNL     1       3.212   6.346 -10.455  0.00  0.00    -0.285 N 
ATOM      2  C   UNL     1       1.973   6.337 -11.149  0.00  0.00    +0.058 A 
ATOM      3  C   UNL     1       1.872   6.169 -12.524  0.00  0.00    +0.043 A 
ATOM      4  C   UNL     1       1.029   6.990 -13.262  0.00  0.00    +0.008 A 
ATOM      5  C   UNL     1      -0.091   7.461 -12.589  0.00  0.00    +0.001 A 
ATOM      6  C   UNL     1      -0.297   7.131 -11.254  0.00  0.00    +0.001 A 
ATOM      7  S   UNL     1       3.271   5.362 -13.312  0.00  0.00    -0.084 S 
ATOM      8  C   UNL     1       4.699   5.935 -12.385  0.00  0.00    +0.043 A 
ATOM      9  C   UNL     1       5.729   6.456 -13.161  0.00  0.00    +0.008 A 
ATOM     10  C   UNL     1       6.657   7.344 -12.634  0.00  0.00    +0.001 A 
ATOM     11  C   UNL     1       6.669   7.435 -11.252  0.00  0.00    +0.001 A 
ATOM     12  C   UNL     1       5.563   7.065 -10.529  0.00  0.00    +0.015 A 
ATOM     13  C   UNL     1       0.811   6.779 -10.533  0.00  0.00    +0.015 A 
ATOM     14  C   UNL     1       4.450   6.504 -11.145  0.00  0.00    +0.058 A 
ENDROOT
BRANCH   1  15
ATOM     15  C   UNL     1       3.237   6.439  -9.006  0.00  0.00    +0.111 C 
BRANCH  15  17
ATOM     16  C   UNL     1       4.459   5.346  -7.287  0.00  0.00    +0.019 C 
ATOM     17  C   UNL     1       3.399   4.900  -8.461  0.00  0.00    +0.078 C 
BRANCH  17  18
ATOM     18  N   UNL     1       2.190   4.996  -7.469  0.00  0.00    -0.270 NA
ATOM     19  C   UNL     1       2.177   3.917  -6.592  0.00  0.00    +0.090 C 
ATOM     20  C   UNL     1       2.104   6.309  -6.974  0.00  0.00    +0.090 C 
ENDBRANCH  17  18
ENDBRANCH  15  17
ENDBRANCH   1  15
TORSDOF 3
ENDMDL
MODEL 3
REMARK VINA RESULT:      -6.8      3.953      6.304
REMARK  Name = 
REMARK  3 active torsions:
REMARK  status: ('A' for Active; 'I' for Inactive)
REMARK    1  A    between atoms: C_2  and  C_3
REMARK    2  A    between atoms: C_2  and  N_18
REMARK    3  A    between atoms: C_3  and  N_4
REMARK                            x       y       z     vdW  Elec       q    Type
REMARK                         _______ _______ _______ _____ _____    ______ ____
ROOT
ATOM      1  N   UNL     1       3.453   6.311 -10.431  0.00  0.00    -0.285 N 
ATOM      2  C   UNL     1       4.786   6.140 -10.889  0.00  0.00    +0.058 A 
ATOM      3  C   UNL     1       5.836   5.777 -10.055  0.00  0.00    +0.043 A 
ATOM      4  C   UNL     1       7.053   6.441 -10.145  0.00  0.00    +0.008 A 
ATOM      5  C   UNL     1       7.373   6.941 -11.400  0.00  0.00    +0.001 A 
ATOM      6  C   UNL     1       6.487   6.789 -12.462  0.00  0.00    +0.001 A 
ATOM      7  S   UNL     1       5.367   4.944  -8.532  0.00  0.00    -0.084 S 
ATOM      8  C   UNL     1       3.816   5.716  -8.059  0.00  0.00    +0.043 A 
ATOM      9  C   UNL     1       3.769   6.178  -6.749  0.00  0.00    +0.008 A 
ATOM     10  C   UNL     1       2.887   7.180  -6.364  0.00  0.00    +0.001 A 
ATOM     11  C   UNL     1       1.881   7.461  -7.272  0.00  0.00    +0.001 A 
ATOM     12  C   UNL     1       2.038   7.137  -8.596  0.00  0.00    +0.015 A 
ATOM     13  C   UNL     1       5.172   6.600 -12.139  0.00  0.00    +0.015 A 
ATOM     14  C   UNL     1       3.153   6.438  -9.042  0.00  0.00    +0.058 A 
ENDROOT
BRANCH   1  15
ATOM     15  C   UNL     1       2.388   6.605 -11.374  0.00  0.00    +0.111 C 
BRANCH  15  17
ATOM     16  C   UNL     1       0.166   5.774 -11.491  0.00  0.00    +0.019 C 
ATOM     17  C   UNL     1       1.677   5.166 -11.710  0.00  0.00    +0.078 C 
BRANCH  17  18
ATOM     18  N   UNL     1       1.607   5.424 -13.254  0.00  0.00    -0.270 NA
ATOM     19  C   UNL     1       0.886   4.423 -13.896  0.00  0.00    +0.090 C 
ATOM     20  C   UNL     1       1.293   6.776 -13.480  0.00  0.00    +0.090 C 
ENDBRANCH  17  18
ENDBRANCH  15  17
ENDBRANCH   1  15
TORSDOF 3
ENDMDL
MODEL 4
REMARK VINA RESULT:      -6.7      2.293      5.146
REMARK  Name = 
REMARK  3 active torsions:
REMARK  status: ('A' for Active; 'I' for Inactive)
REMARK    1  A    between atoms: C_2  and  C_3
REMARK    2  A    between atoms: C_2  and  N_18
REMARK    3  A    between atoms: C_3  and  N_4
REMARK                            x       y       z     vdW  Elec       q    Type
REMARK                         _______ _______ _______ _____ _____    ______ ____
ROOT
ATOM      1  N   UNL     1       0.792   5.598  -6.833  0.00  0.00    -0.285 N 
ATOM      2  C   UNL     1       1.983   5.825  -6.093  0.00  0.00    +0.058 A 
ATOM      3  C   UNL     1       3.105   6.445  -6.629  0.00  0.00    +0.043 A 
ATOM      4  C   UNL     1       4.367   5.910  -6.401  0.00  0.00    +0.008 A 
ATOM      5  C   UNL     1       4.521   5.227  -5.202  0.00  0.00    +0.001 A 
ATOM      6  C   UNL     1       3.446   5.088  -4.331  0.00  0.00    +0.001 A 
ATOM      7  S   UNL     1       2.807   7.486  -8.064  0.00  0.00    -0.084 S 
ATOM      8  C   UNL     1       1.491   6.650  -8.958  0.00  0.00    +0.043 A 
ATOM      9  C   UNL     1       1.747   6.432 -10.307  0.00  0.00    +0.008 A 
ATOM     10  C   UNL     1       1.100   5.428 -11.015  0.00  0.00    +0.001 A 
ATOM     11  C   UNL     1      -0.005   4.879 -10.385  0.00  0.00    +0.001 A 
ATOM     12  C   UNL     1      -0.137   4.973  -9.022  0.00  0.00    +0.015 A 
ATOM     13  C   UNL     1       2.197   5.190  -4.879  0.00  0.00    +0.015 A 
ATOM     14  C   UNL     1       0.770   5.695  -8.256  0.00  0.00    +0.058 A 
ENDROOT
BRANCH   1  15
ATOM     15  C   UNL     1      -0.373   5.024  -6.183  0.00  0.00    +0.111 C 
BRANCH  15  17
ATOM     16  C   UNL     1      -2.660   5.666  -6.196  0.00  0.00    +0.019 C 
ATOM     17  C   UNL     1      -1.251   6.296  -5.633  0.00  0.00    +0.078 C 
BRANCH  17  18
ATOM     18  N   UNL     1      -1.486   5.675  -4.214  0.00  0.00    -0.270 NA
ATOM     19  C   UNL     1      -0.846   6.421  -3.230  0.00  0.00    +0.090 C 
ATOM     20  C   UNL     1      -2.846   5.345  -4.077  0.00  0.00    +0.090 C 
ENDBRANCH  17  18
ENDBRANCH  15  17
ENDBRANCH   1  15
TORSDOF 3
ENDMDL
MODEL 5
REMARK VINA RESULT:      -6.7      1.946      4.754
REMARK  Name = 
REMARK  3 active torsions:
REMARK  status: ('A' for Active; 'I' for Inactive)
REMARK    1  A    between atoms: C_2  and  C_3
REMARK    2  A    between atoms: C_2  and  N_18
REMARK    3  A    between atoms: C_3  and  N_4
REMARK                            x       y       z     vdW  Elec       q    Type
REMARK                         _______ _______ _______ _____ _____    ______ ____
ROOT
ATOM      1  N   UNL     1       0.768   5.678  -4.601  0.00  0.00    -0.285 N 
ATOM      2  C   UNL     1       1.353   5.754  -3.310  0.00  0.00    +0.058 A 
ATOM      3  C   UNL     1       2.676   6.120  -3.095  0.00  0.00    +0.043 A 
ATOM      4  C   UNL     1       3.460   5.394  -2.207  0.00  0.00    +0.008 A 
ATOM      5  C   UNL     1       2.779   4.799  -1.153  0.00  0.00    +0.001 A 
ATOM      6  C   UNL     1       1.397   4.924  -1.052  0.00  0.00    +0.001 A 
ATOM      7  S   UNL     1       3.443   7.072  -4.413  0.00  0.00    -0.084 S 
ATOM      8  C   UNL     1       2.726   6.407  -5.920  0.00  0.00    +0.043 A 
ATOM      9  C   UNL     1       3.649   6.034  -6.891  0.00  0.00    +0.008 A 
ATOM     10  C   UNL     1       3.334   5.103  -7.872  0.00  0.00    +0.001 A 
ATOM     11  C   UNL     1       1.986   4.812  -7.998  0.00  0.00    +0.001 A 
ATOM     12  C   UNL     1       1.131   5.042  -6.949  0.00  0.00    +0.015 A 
ATOM     13  C   UNL     1       0.721   5.196  -2.209  0.00  0.00    +0.015 A 
ATOM     14  C   UNL     1       1.568   5.656  -5.781  0.00  0.00    +0.058 A 
ENDROOT
BRANCH   1  15
ATOM     15  C   UNL     1      -0.645   5.374  -4.746  0.00  0.00    +0.111 C 
BRANCH  15  17
ATOM     16  C   UNL     1      -2.380   6.108  -6.192  0.00  0.00    +0.019 C 
ATOM     17  C   UNL     1      -1.377   6.801  -5.091  0.00  0.00    +0.078 C 
BRANCH  17  18
ATOM     18  N   UNL     1      -2.450   6.663  -3.957  0.00  0.00    -0.270 NA
ATOM     19  C   UNL     1      -2.735   5.327  -3.699  0.00  0.00    +0.090 C 
ATOM     20  C   UNL     1      -2.118   7.530  -2.902  0.00  0.00    +0.090 C 
ENDBRANCH  17  18
ENDBRANCH  15  17
ENDBRANCH   1  15
TORSDOF 3
ENDMDL
MODEL 6
REMARK VINA RESULT:      -6.6      1.341      2.055
REMARK  Name = 
REMARK  3 active torsions:
REMARK  status: ('A' for Active; 'I' for Inactive)
REMARK    1  A    between atoms: C_2  and  C_3
REMARK    2  A    between atoms: C_2  and  N_18
REMARK    3  A    between atoms: C_3  and  N_4
REMARK                            x       y       z     vdW  Elec       q    Type
REMARK                         _______ _______ _______ _____ _____    ______ ____
ROOT
ATOM      1  N   UNL     1       2.415   5.206  -5.447  0.00  0.00    -0.285 N 
ATOM      2  C   UNL     1       3.291   5.825  -4.517  0.00  0.00    +0.058 A 
ATOM      3  C   UNL     1       2.866   6.339  -3.298  0.00  0.00    +0.043 A 
ATOM      4  C   UNL     1       3.310   7.587  -2.880  0.00  0.00    +0.008 A 
ATOM      5  C   UNL     1       4.571   7.957  -3.329  0.00  0.00    +0.001 A 
ATOM      6  C   UNL     1       5.294   7.111  -4.165  0.00  0.00    +0.001 A 
ATOM      7  S   UNL     1       1.322   5.668  -2.667  0.00  0.00    -0.084 S 
ATOM      8  C   UNL     1       0.328   5.376  -4.135  0.00  0.00    +0.043 A 
ATOM      9  C   UNL     1      -0.950   5.923  -4.092  0.00  0.00    +0.008 A 
ATOM     10  C   UNL     1      -1.656   6.208  -5.254  0.00  0.00    +0.001 A 
ATOM     11  C   UNL     1      -1.142   5.646  -6.410  0.00  0.00    +0.001 A 
ATOM     12  C   UNL     1       0.177   5.271  -6.466  0.00  0.00    +0.015 A 
ATOM     13  C   UNL     1       4.572   6.205  -4.891  0.00  0.00    +0.015 A 
ATOM     14  C   UNL     1       1.000   5.352  -5.349  0.00  0.00    +0.058 A 
ENDROOT
BRANCH   1  15
ATOM     15  C   UNL     1       2.943   4.612  -6.663  0.00  0.00    +0.111 C 
BRANCH  15  17
ATOM     16  C   UNL     1       4.696   5.314  -8.104  0.00  0.00    +0.019 C 
ATOM     17  C   UNL     1       3.202   5.860  -7.696  0.00  0.00    +0.078 C 
BRANCH  17  18
ATOM     18  N   UNL     1       2.551   5.137  -8.924  0.00  0.00    -0.270 NA
ATOM     19  C   UNL     1       2.938   5.735 -10.118  0.00  0.00    +0.090 C 
ATOM     20  C   UNL     1       2.677   3.747  -8.758  0.00  0.00    +0.090 C 
ENDBRANCH  17  18
ENDBRANCH  15  17
ENDBRANCH   1  15
TORSDOF 3
ENDMDL
MODEL 7
REMARK VINA RESULT:      -6.4      3.316      6.122
REMARK  Name = 
REMARK  3 active torsions:
REMARK  status: ('A' for Active; 'I' for Inactive)
REMARK    1  A    between atoms: C_2  and  C_3
REMARK    2  A    between atoms: C_2  and  N_18
REMARK    3  A    between atoms: C_3  and  N_4
REMARK                            x       y       z     vdW  Elec       q    Type
REMARK                         _______ _______ _______ _____ _____    ______ ____
ROOT
ATOM      1  N   UNL     1       3.764   5.732  -8.821  0.00  0.00    -0.285 N 
ATOM      2  C   UNL     1       2.551   5.898  -9.540  0.00  0.00    +0.058 A 
ATOM      3  C   UNL     1       1.444   6.557  -9.021  0.00  0.00    +0.043 A 
ATOM      4  C   UNL     1       0.178   6.005  -9.167  0.00  0.00    +0.008 A 
ATOM      5  C   UNL     1      -0.011   5.228 -10.303  0.00  0.00    +0.001 A 
ATOM      6  C   UNL     1       1.038   5.020 -11.192  0.00  0.00    +0.001 A 
ATOM      7  S   UNL     1       1.781   7.710  -7.684  0.00  0.00    -0.084 S 
ATOM      8  C   UNL     1       3.127   6.950  -6.767  0.00  0.00    +0.043 A 
ATOM      9  C   UNL     1       2.912   6.841  -5.398  0.00  0.00    +0.008 A 
ATOM     10  C   UNL     1       3.585   5.897  -4.631  0.00  0.00    +0.001 A 
ATOM     11  C   UNL     1       4.671   5.301  -5.248  0.00  0.00    +0.001 A 
ATOM     12  C   UNL     1       4.762   5.285  -6.618  0.00  0.00    +0.015 A 
ATOM     13  C   UNL     1       2.303   5.167 -10.692  0.00  0.00    +0.015 A 
ATOM     14  C   UNL     1       3.830   5.942  -7.412  0.00  0.00    +0.058 A 
ENDROOT
BRANCH   1  15
ATOM     15  C   UNL     1       4.912   5.110  -9.458  0.00  0.00    +0.111 C 
BRANCH  15  17
ATOM     16  C   UNL     1       7.186   5.794  -9.497  0.00  0.00    +0.019 C 
ATOM     17  C   UNL     1       5.770   6.334 -10.132  0.00  0.00    +0.078 C 
BRANCH  17  18
ATOM     18  N   UNL     1       6.029   5.575 -11.477  0.00  0.00    -0.270 NA
ATOM     19  C   UNL     1       5.306   6.144 -12.519  0.00  0.00    +0.090 C 
ATOM     20  C   UNL     1       7.409   5.346 -11.617  0.00  0.00    +0.090 C 
ENDBRANCH  17  18
ENDBRANCH  15  17
ENDBRANCH   1  15
TORSDOF 3
ENDMDL
MODEL 8
REMARK VINA RESULT:      -6.4      1.956      4.582
REMARK  Name = 
REMARK  3 active torsions:
REMARK  status: ('A' for Active; 'I' for Inactive)
REMARK    1  A    between atoms: C_2  and  C_3
REMARK    2  A    between atoms: C_2  and  N_18
REMARK    3  A    between atoms: C_3  and  N_4
REMARK                            x       y       z     vdW  Elec       q    Type
REMARK                         _______ _______ _______ _____ _____    ______ ____
ROOT
ATOM      1  N   UNL     1       0.594   6.239  -3.794  0.00  0.00    -0.285 N 
ATOM      2  C   UNL     1       0.129   6.184  -5.134  0.00  0.00    +0.058 A 
ATOM      3  C   UNL     1      -1.136   6.613  -5.519  0.00  0.00    +0.043 A 
ATOM      4  C   UNL     1      -1.900   5.832  -6.378  0.00  0.00    +0.008 A 
ATOM      5  C   UNL     1      -1.184   5.054  -7.278  0.00  0.00    +0.001 A 
ATOM      6  C   UNL     1       0.207   5.064  -7.262  0.00  0.00    +0.001 A 
ATOM      7  S   UNL     1      -1.929   7.785  -4.411  0.00  0.00    -0.084 S 
ATOM      8  C   UNL     1      -1.401   7.279  -2.770  0.00  0.00    +0.043 A 
ATOM      9  C   UNL     1      -2.431   7.107  -1.852  0.00  0.00    +0.008 A 
ATOM     10  C   UNL     1      -2.279   6.296  -0.735  0.00  0.00    +0.001 A 
ATOM     11  C   UNL     1      -0.976   5.927  -0.446  0.00  0.00    +0.001 A 
ATOM     12  C   UNL     1      -0.019   5.952  -1.430  0.00  0.00    +0.015 A 
ATOM     13  C   UNL     1       0.803   5.439  -6.091  0.00  0.00    +0.015 A 
ATOM     14  C   UNL     1      -0.302   6.434  -2.702  0.00  0.00    +0.058 A 
ENDROOT
BRANCH   1  15
ATOM     15  C   UNL     1       1.959   5.857  -3.479  0.00  0.00    +0.111 C 
BRANCH  15  17
ATOM     16  C   UNL     1       3.532   6.972  -2.092  0.00  0.00    +0.019 C 
ATOM     17  C   UNL     1       2.842   7.237  -3.559  0.00  0.00    +0.078 C 
BRANCH  17  18
ATOM     18  N   UNL     1       4.048   6.566  -4.300  0.00  0.00    -0.270 NA
ATOM     19  C   UNL     1       5.152   7.410  -4.323  0.00  0.00    +0.090 C 
ATOM     20  C   UNL     1       4.182   5.240  -3.851  0.00  0.00    +0.090 C 
ENDBRANCH  17  18
ENDBRANCH  15  17
ENDBRANCH   1  15
TORSDOF 3
ENDMDL
MODEL 9
REMARK VINA RESULT:      -6.3      4.667      7.894
REMARK  Name = 
REMARK  3 active torsions:
REMARK  status: ('A' for Active; 'I' for Inactive)
REMARK    1  A    between atoms: C_2  and  C_3
REMARK    2  A    between atoms: C_2  and  N_18
REMARK    3  A    between atoms: C_3  and  N_4
REMARK                            x       y       z     vdW  Elec       q    Type
REMARK                         _______ _______ _______ _____ _____    ______ ____
ROOT
ATOM      1  N   UNL     1       4.159   5.874 -11.154  0.00  0.00    -0.285 N 
ATOM      2  C   UNL     1       3.037   5.816 -12.023  0.00  0.00    +0.058 A 
ATOM      3  C   UNL     1       1.732   6.016 -11.595  0.00  0.00    +0.043 A 
ATOM      4  C   UNL     1       0.723   5.160 -12.020  0.00  0.00    +0.008 A 
ATOM      5  C   UNL     1       0.908   4.592 -13.274  0.00  0.00    +0.001 A 
ATOM      6  C   UNL     1       2.057   4.869 -14.007  0.00  0.00    +0.001 A 
ATOM      7  S   UNL     1       1.549   6.941 -10.064  0.00  0.00    -0.084 S 
ATOM      8  C   UNL     1       2.960   6.443  -9.069  0.00  0.00    +0.043 A 
ATOM      9  C   UNL     1       2.647   6.018  -7.783  0.00  0.00    +0.008 A 
ATOM     10  C   UNL     1       3.494   5.181  -7.069  0.00  0.00    +0.001 A 
ATOM     11  C   UNL     1       4.772   5.052  -7.588  0.00  0.00    +0.001 A 
ATOM     12  C   UNL     1       5.007   5.323  -8.913  0.00  0.00    +0.015 A 
ATOM     13  C   UNL     1       3.152   5.277 -13.297  0.00  0.00    +0.015 A 
ATOM     14  C   UNL     1       4.006   5.822  -9.738  0.00  0.00    +0.058 A 
ENDROOT
BRANCH   1  15
ATOM     15  C   UNL     1       5.503   5.741 -11.687  0.00  0.00    +0.111 C 
BRANCH  15  17
ATOM     16  C   UNL     1       7.223   7.241 -11.029  0.00  0.00    +0.019 C 
ATOM     17  C   UNL     1       5.975   7.258 -12.097  0.00  0.00    +0.078 C 
BRANCH  17  18
ATOM     18  N   UNL     1       6.905   6.784 -13.264  0.00  0.00    -0.270 NA
ATOM     19  C   UNL     1       7.346   5.482 -13.055  0.00  0.00    +0.090 C 
ATOM     20  C   UNL     1       6.321   7.142 -14.492  0.00  0.00    +0.090 C 
ENDBRANCH  17  18
ENDBRANCH  15  17
ENDBRANCH   1  15
TORSDOF 3
ENDMDL
