MODEL 1
REMARK VINA RESULT:      -9.2      0.000      0.000
REMARK  Name = 
REMARK  5 active torsions:
REMARK  status: ('A' for Active; 'I' for Inactive)
REMARK    1  A    between atoms: C_2  and  O_3
REMARK    2  A    between atoms: C_2  and  C_16
REMARK    3  A    between atoms: O_3  and  C_4
REMARK    4  A    between atoms: C_16  and  C_18
REMARK    5  A    between atoms: C_16  and  C_24
REMARK                            x       y       z     vdW  Elec       q    Type
REMARK                         _______ _______ _______ _____ _____    ______ ____
ROOT
ATOM      1  O   UNL     1       1.366   4.507  -5.119  0.00  0.00    -0.247 OA
ATOM      2  C   UNL     1       1.471   4.828  -5.205  0.00  0.00    +0.353 C 
ENDROOT
BRANCH   2   3
ATOM      3  C   UNL     1       0.898   5.873  -4.365  0.00  0.00    +0.252 C 
ATOM      4  O   UNL     1       1.810   6.938  -4.531  0.00  0.00    -0.205 OA
BRANCH   3   5
ATOM      5  C   UNL     1       0.835   5.569  -2.931  0.00  0.00    +0.019 A 
ATOM      6  C   UNL     1      -0.401   5.276  -2.368  0.00  0.00    -0.001 A 
ATOM      7  C   UNL     1      -0.727   5.651  -1.069  0.00  0.00    -0.000 A 
ATOM      8  C   UNL     1       0.177   6.423  -0.349  0.00  0.00    -0.000 A 
ATOM      9  C   UNL     1       1.508   6.295  -0.723  0.00  0.00    -0.000 A 
ATOM     10  C   UNL     1       1.757   6.173  -2.086  0.00  0.00    -0.001 A 
ENDBRANCH   3   5
BRANCH   3  11
ATOM     11  C   UNL     1      -0.414   6.271  -4.899  0.00  0.00    +0.019 A 
ATOM     12  C   UNL     1      -1.056   5.555  -5.876  0.00  0.00    -0.001 A 
ATOM     13  C   UNL     1      -2.381   5.882  -6.122  0.00  0.00    -0.000 A 
ATOM     14  C   UNL     1      -2.905   7.039  -5.588  0.00  0.00    -0.000 A 
ATOM     15  C   UNL     1      -2.119   7.921  -4.898  0.00  0.00    -0.000 A 
ATOM     16  C   UNL     1      -0.847   7.540  -4.576  0.00  0.00    -0.001 A 
ENDBRANCH   3  11
ENDBRANCH   2   3
BRANCH   2  17
ATOM     17  O   UNL     1       2.549   4.808  -6.057  0.00  0.00    -0.450 OA
BRANCH  17  18
ATOM     18  C   UNL     1       2.253   5.284  -7.376  0.00  0.00    +0.180 C 
ATOM     19  C   UNL     1       2.441   4.149  -8.270  0.00  0.00    +0.099 C 
ATOM     20  C   UNL     1       2.893   4.664  -9.767  0.00  0.00    +0.062 C 
ATOM     21  N   UNL     1       2.061   5.955  -9.735  0.00  0.00    +0.289 N 
ATOM     22  C   UNL     1       2.865   7.074  -9.061  0.00  0.00    +0.062 C 
ATOM     23  C   UNL     1       4.241   6.613  -9.840  0.00  0.00    +0.061 C 
ATOM     24  C   UNL     1       0.760   5.871  -9.501  0.00  0.00    +0.108 C 
ATOM     25  C   UNL     1       0.109   5.485 -10.825  0.00  0.00    +0.067 C 
ATOM     26  C   UNL     1       1.299   5.323 -11.767  0.00  0.00    +0.067 C 
ATOM     27  C   UNL     1       2.228   6.356 -11.136  0.00  0.00    +0.108 C 
ATOM     28  C   UNL     1       4.325   5.283  -9.259  0.00  0.00    +0.061 C 
ATOM     29  C   UNL     1       3.235   6.326  -7.647  0.00  0.00    +0.099 C 
ENDBRANCH  17  18
ENDBRANCH   2  17
TORSDOF 5
ENDMDL
MODEL 2
REMARK VINA RESULT:      -9.2      2.532      7.781
REMARK  Name = 
REMARK  5 active torsions:
REMARK  status: ('A' for Active; 'I' for Inactive)
REMARK    1  A    between atoms: C_2  and  O_3
REMARK    2  A    between atoms: C_2  and  C_16
REMARK    3  A    between atoms: O_3  and  C_4
REMARK    4  A    between atoms: C_16  and  C_18
REMARK    5  A    between atoms: C_16  and  C_24
REMARK                            x       y       z     vdW  Elec       q    Type
REMARK                         _______ _______ _______ _____ _____    ______ ____
ROOT
ATOM      1  O   UNL     1       2.703   6.829  -9.390  0.00  0.00    -0.247 OA
ATOM      2  C   UNL     1       2.702   6.481  -9.403  0.00  0.00    +0.353 C 
ENDROOT
BRANCH   2   3
ATOM      3  C   UNL     1       3.764   5.924 -10.232  0.00  0.00    +0.252 C 
ATOM      4  O   UNL     1       3.865   4.599  -9.756  0.00  0.00    -0.205 OA
BRANCH   3   5
ATOM      5  C   UNL     1       5.083   6.548 -10.075  0.00  0.00    +0.019 A 
ATOM      6  C   UNL     1       5.436   7.580 -10.935  0.00  0.00    -0.001 A 
ATOM      7  C   UNL     1       6.744   7.761 -11.372  0.00  0.00    -0.000 A 
ATOM      8  C   UNL     1       7.706   6.826 -11.009  0.00  0.00    -0.000 A 
ATOM      9  C   UNL     1       7.454   6.130  -9.834  0.00  0.00    -0.000 A 
ATOM     10  C   UNL     1       6.131   5.770  -9.602  0.00  0.00    -0.001 A 
ENDBRANCH   3   5
BRANCH   3  11
ATOM     11  C   UNL     1       3.332   5.903 -11.638  0.00  0.00    +0.019 A 
ATOM     12  C   UNL     1       2.061   6.243 -12.020  0.00  0.00    -0.001 A 
ATOM     13  C   UNL     1       1.842   6.421 -13.378  0.00  0.00    -0.000 A 
ATOM     14  C   UNL     1       2.800   6.011 -14.279  0.00  0.00    -0.000 A 
ATOM     15  C   UNL     1       3.922   5.344 -13.867  0.00  0.00    -0.000 A 
ATOM     16  C   UNL     1       4.173   5.266 -12.527  0.00  0.00    -0.001 A 
ENDBRANCH   3  11
ENDBRANCH   2   3
BRANCH   2  17
ATOM     17  O   UNL     1       1.894   5.933  -8.435  0.00  0.00    -0.450 OA
BRANCH  17  18
ATOM     18  C   UNL     1       2.300   6.249  -7.098  0.00  0.00    +0.180 C 
ATOM     19  C   UNL     1       2.999   5.073  -6.596  0.00  0.00    +0.099 C 
ATOM     20  C   UNL     1       2.838   4.960  -4.962  0.00  0.00    +0.062 C 
ATOM     21  N   UNL     1       2.844   6.475  -4.709  0.00  0.00    +0.289 N 
ATOM     22  C   UNL     1       1.422   7.032  -4.853  0.00  0.00    +0.062 C 
ATOM     23  C   UNL     1       0.789   5.737  -4.057  0.00  0.00    +0.061 C 
ATOM     24  C   UNL     1       3.861   7.193  -5.160  0.00  0.00    +0.108 C 
ATOM     25  C   UNL     1       4.990   7.022  -4.148  0.00  0.00    +0.067 C 
ATOM     26  C   UNL     1       4.405   6.043  -3.133  0.00  0.00    +0.067 C 
ATOM     27  C   UNL     1       2.940   6.452  -3.245  0.00  0.00    +0.108 C 
ATOM     28  C   UNL     1       1.214   4.728  -5.012  0.00  0.00    +0.061 C 
ATOM     29  C   UNL     1       1.065   6.473  -6.355  0.00  0.00    +0.099 C 
ENDBRANCH  17  18
ENDBRANCH   2  17
TORSDOF 5
ENDMDL
MODEL 3
REMARK VINA RESULT:      -9.1      2.105      7.243
REMARK  Name = 
REMARK  5 active torsions:
REMARK  status: ('A' for Active; 'I' for Inactive)
REMARK    1  A    between atoms: C_2  and  O_3
REMARK    2  A    between atoms: C_2  and  C_16
REMARK    3  A    between atoms: O_3  and  C_4
REMARK    4  A    between atoms: C_16  and  C_18
REMARK    5  A    between atoms: C_16  and  C_24
REMARK                            x       y       z     vdW  Elec       q    Type
REMARK                         _______ _______ _______ _____ _____    ______ ____
ROOT
ATOM      1  O   UNL     1       3.396   7.057  -9.094  0.00  0.00    -0.247 OA
ATOM      2  C   UNL     1       3.404   6.717  -9.015  0.00  0.00    +0.353 C 
ENDROOT
BRANCH   2   3
ATOM      3  C   UNL     1       3.634   5.857 -10.170  0.00  0.00    +0.252 C 
ATOM      4  O   UNL     1       4.085   4.658  -9.577  0.00  0.00    -0.205 OA
BRANCH   3   5
ATOM      5  C   UNL     1       4.677   6.307 -11.098  0.00  0.00    +0.019 A 
ATOM      6  C   UNL     1       5.453   5.350 -11.740  0.00  0.00    -0.001 A 
ATOM      7  C   UNL     1       6.795   5.563 -12.033  0.00  0.00    -0.000 A 
ATOM      8  C   UNL     1       7.400   6.732 -11.587  0.00  0.00    -0.000 A 
ATOM      9  C   UNL     1       6.549   7.812 -11.393  0.00  0.00    -0.000 A 
ATOM     10  C   UNL     1       5.299   7.525 -10.855  0.00  0.00    -0.001 A 
ENDBRANCH   3   5
BRANCH   3  11
ATOM     11  C   UNL     1       2.358   5.607 -10.860  0.00  0.00    +0.019 A 
ATOM     12  C   UNL     1       1.983   6.299 -11.982  0.00  0.00    -0.001 A 
ATOM     13  C   UNL     1       0.887   5.813 -12.679  0.00  0.00    -0.000 A 
ATOM     14  C   UNL     1       0.087   4.852 -12.100  0.00  0.00    -0.000 A 
ATOM     15  C   UNL     1       0.296   4.435 -10.814  0.00  0.00    -0.000 A 
ATOM     16  C   UNL     1       1.434   4.844 -10.177  0.00  0.00    -0.001 A 
ENDBRANCH   3  11
ENDBRANCH   2   3
BRANCH   2  17
ATOM     17  O   UNL     1       3.510   6.504  -7.662  0.00  0.00    -0.450 OA
BRANCH  17  18
ATOM     18  C   UNL     1       2.285   6.087  -7.046  0.00  0.00    +0.180 C 
ATOM     19  C   UNL     1       1.562   7.308  -6.713  0.00  0.00    +0.099 C 
ATOM     20  C   UNL     1       0.603   7.069  -5.397  0.00  0.00    +0.062 C 
ATOM     21  N   UNL     1       0.266   5.606  -5.725  0.00  0.00    +0.289 N 
ATOM     22  C   UNL     1       1.350   4.683  -5.155  0.00  0.00    +0.062 C 
ATOM     23  C   UNL     1       1.426   5.560  -3.764  0.00  0.00    +0.061 C 
ATOM     24  C   UNL     1      -0.261   5.322  -6.906  0.00  0.00    +0.108 C 
ATOM     25  C   UNL     1      -1.750   5.639  -6.801  0.00  0.00    +0.067 C 
ATOM     26  C   UNL     1      -1.890   6.195  -5.386  0.00  0.00    +0.067 C 
ATOM     27  C   UNL     1      -0.779   5.392  -4.717  0.00  0.00    +0.108 C 
ATOM     28  C   UNL     1       1.858   6.807  -4.374  0.00  0.00    +0.061 C 
ATOM     29  C   UNL     1       2.675   5.371  -5.838  0.00  0.00    +0.099 C 
ENDBRANCH  17  18
ENDBRANCH   2  17
TORSDOF 5
ENDMDL
MODEL 4
REMARK VINA RESULT:      -9.1      2.327      4.697
REMARK  Name = 
REMARK  5 active torsions:
REMARK  status: ('A' for Active; 'I' for Inactive)
REMARK    1  A    between atoms: C_2  and  O_3
REMARK    2  A    between atoms: C_2  and  C_16
REMARK    3  A    between atoms: O_3  and  C_4
REMARK    4  A    between atoms: C_16  and  C_18
REMARK    5  A    between atoms: C_16  and  C_24
REMARK                            x       y       z     vdW  Elec       q    Type
REMARK                         _______ _______ _______ _____ _____    ______ ____
ROOT
ATOM      1  O   UNL     1       2.272   4.385  -7.847  0.00  0.00    -0.247 OA
ATOM      2  C   UNL     1       2.085   4.679  -7.824  0.00  0.00    +0.353 C 
ENDROOT
BRANCH   2   3
ATOM      3  C   UNL     1       1.627   4.976  -6.472  0.00  0.00    +0.252 C 
ATOM      4  O   UNL     1       1.301   3.698  -5.969  0.00  0.00    -0.205 OA
BRANCH   3   5
ATOM      5  C   UNL     1       0.421   5.805  -6.379  0.00  0.00    +0.019 A 
ATOM      6  C   UNL     1       0.292   6.672  -5.301  0.00  0.00    -0.001 A 
ATOM      7  C   UNL     1      -0.941   6.946  -4.719  0.00  0.00    -0.000 A 
ATOM      8  C   UNL     1      -2.062   6.261  -5.172  0.00  0.00    -0.000 A 
ATOM      9  C   UNL     1      -1.997   5.801  -6.481  0.00  0.00    -0.000 A 
ATOM     10  C   UNL     1      -0.766   5.308  -6.901  0.00  0.00    -0.001 A 
ENDBRANCH   3   5
BRANCH   3  11
ATOM     11  C   UNL     1       2.739   5.536  -5.687  0.00  0.00    +0.019 A 
ATOM     12  C   UNL     1       3.290   6.759  -5.966  0.00  0.00    -0.001 A 
ATOM     13  C   UNL     1       4.156   7.286  -5.019  0.00  0.00    -0.000 A 
ATOM     14  C   UNL     1       4.619   6.480  -4.001  0.00  0.00    -0.000 A 
ATOM     15  C   UNL     1       4.317   5.147  -3.959  0.00  0.00    -0.000 A 
ATOM     16  C   UNL     1       3.385   4.665  -4.835  0.00  0.00    -0.001 A 
ENDBRANCH   3  11
ENDBRANCH   2   3
BRANCH   2  17
ATOM     17  O   UNL     1       2.192   5.447  -8.959  0.00  0.00    -0.450 OA
BRANCH  17  18
ATOM     18  C   UNL     1       3.521   5.511  -9.489  0.00  0.00    +0.180 C 
ATOM     19  C   UNL     1       3.885   6.922  -9.504  0.00  0.00    +0.099 C 
ATOM     20  C   UNL     1       4.954   7.229 -10.718  0.00  0.00    +0.062 C 
ATOM     21  N   UNL     1       5.673   5.874 -10.625  0.00  0.00    +0.289 N 
ATOM     22  C   UNL     1       4.936   4.836 -11.480  0.00  0.00    +0.062 C 
ATOM     23  C   UNL     1       4.702   5.932 -12.686  0.00  0.00    +0.061 C 
ATOM     24  C   UNL     1       6.183   5.501  -9.462  0.00  0.00    +0.108 C 
ATOM     25  C   UNL     1       7.523   6.219  -9.328  0.00  0.00    +0.067 C 
ATOM     26  C   UNL     1       7.588   7.076 -10.590  0.00  0.00    +0.067 C 
ATOM     27  C   UNL     1       6.797   6.163 -11.523  0.00  0.00    +0.108 C 
ATOM     28  C   UNL     1       3.893   6.861 -11.914  0.00  0.00    +0.061 C 
ATOM     29  C   UNL     1       3.429   4.986 -10.846  0.00  0.00    +0.099 C 
ENDBRANCH  17  18
ENDBRANCH   2  17
TORSDOF 5
ENDMDL
MODEL 5
REMARK VINA RESULT:      -9.0      1.374      3.374
REMARK  Name = 
REMARK  5 active torsions:
REMARK  status: ('A' for Active; 'I' for Inactive)
REMARK    1  A    between atoms: C_2  and  O_3
REMARK    2  A    between atoms: C_2  and  C_16
REMARK    3  A    between atoms: O_3  and  C_4
REMARK    4  A    between atoms: C_16  and  C_18
REMARK    5  A    between atoms: C_16  and  C_24
REMARK                            x       y       z     vdW  Elec       q    Type
REMARK                         _______ _______ _______ _____ _____    ______ ____
ROOT
ATOM      1  O   UNL     1       0.866   4.646  -4.804  0.00  0.00    -0.247 OA
ATOM      2  C   UNL     1       1.100   4.900  -4.754  0.00  0.00    +0.353 C 
ENDROOT
BRANCH   2   3
ATOM      3  C   UNL     1       0.916   5.621  -3.500  0.00  0.00    +0.252 C 
ATOM      4  O   UNL     1       0.485   4.606  -2.620  0.00  0.00    -0.205 OA
BRANCH   3   5
ATOM      5  C   UNL     1      -0.120   6.660  -3.513  0.00  0.00    +0.019 A 
ATOM      6  C   UNL     1      -1.115   6.617  -2.544  0.00  0.00    -0.001 A 
ATOM      7  C   UNL     1      -2.421   7.014  -2.809  0.00  0.00    -0.000 A 
ATOM      8  C   UNL     1      -2.759   7.375  -4.107  0.00  0.00    -0.000 A 
ATOM      9  C   UNL     1      -1.715   7.848  -4.891  0.00  0.00    -0.000 A 
ATOM     10  C   UNL     1      -0.488   7.213  -4.732  0.00  0.00    -0.001 A 
ENDBRANCH   3   5
BRANCH   3  11
ATOM     11  C   UNL     1       2.211   6.145  -3.039  0.00  0.00    +0.019 A 
ATOM     12  C   UNL     1       2.810   7.234  -3.617  0.00  0.00    -0.001 A 
ATOM     13  C   UNL     1       3.895   7.780  -2.947  0.00  0.00    -0.000 A 
ATOM     14  C   UNL     1       4.473   7.081  -1.910  0.00  0.00    -0.000 A 
ATOM     15  C   UNL     1       4.059   5.818  -1.588  0.00  0.00    -0.000 A 
ATOM     16  C   UNL     1       2.929   5.335  -2.184  0.00  0.00    -0.001 A 
ENDBRANCH   3  11
ENDBRANCH   2   3
BRANCH   2  17
ATOM     17  O   UNL     1       2.157   4.807  -5.626  0.00  0.00    -0.450 OA
BRANCH  17  18
ATOM     18  C   UNL     1       1.839   5.207  -6.965  0.00  0.00    +0.180 C 
ATOM     19  C   UNL     1       2.330   4.145  -7.834  0.00  0.00    +0.099 C 
ATOM     20  C   UNL     1       2.741   4.751  -9.308  0.00  0.00    +0.062 C 
ATOM     21  N   UNL     1       1.640   5.821  -9.339  0.00  0.00    +0.289 N 
ATOM     22  C   UNL     1       2.130   7.092  -8.633  0.00  0.00    +0.062 C 
ATOM     23  C   UNL     1       3.618   6.954  -9.326  0.00  0.00    +0.061 C 
ATOM     24  C   UNL     1       0.380   5.446  -9.179  0.00  0.00    +0.108 C 
ATOM     25  C   UNL     1      -0.089   4.926 -10.534  0.00  0.00    +0.067 C 
ATOM     26  C   UNL     1       1.160   5.038 -11.404  0.00  0.00    +0.067 C 
ATOM     27  C   UNL     1       1.794   6.253 -10.733  0.00  0.00    +0.108 C 
ATOM     28  C   UNL     1       3.965   5.676  -8.726  0.00  0.00    +0.061 C 
ATOM     29  C   UNL     1       2.576   6.444  -7.192  0.00  0.00    +0.099 C 
ENDBRANCH  17  18
ENDBRANCH   2  17
TORSDOF 5
ENDMDL
MODEL 6
REMARK VINA RESULT:      -8.9      2.847      7.144
REMARK  Name = 
REMARK  5 active torsions:
REMARK  status: ('A' for Active; 'I' for Inactive)
REMARK    1  A    between atoms: C_2  and  O_3
REMARK    2  A    between atoms: C_2  and  C_16
REMARK    3  A    between atoms: O_3  and  C_4
REMARK    4  A    between atoms: C_16  and  C_18
REMARK    5  A    between atoms: C_16  and  C_24
REMARK                            x       y       z     vdW  Elec       q    Type
REMARK                         _______ _______ _______ _____ _____    ______ ____
ROOT
ATOM      1  O   UNL     1       2.518   4.764  -7.124  0.00  0.00    -0.247 OA
ATOM      2  C   UNL     1       2.622   5.075  -7.244  0.00  0.00    +0.353 C 
ENDROOT
BRANCH   2   3
ATOM      3  C   UNL     1       3.029   5.051  -8.644  0.00  0.00    +0.252 C 
ATOM      4  O   UNL     1       3.358   3.693  -8.847  0.00  0.00    -0.205 OA
BRANCH   3   5
ATOM      5  C   UNL     1       4.219   5.844  -8.972  0.00  0.00    +0.019 A 
ATOM      6  C   UNL     1       4.170   6.690 -10.072  0.00  0.00    -0.001 A 
ATOM      7  C   UNL     1       5.282   6.921 -10.875  0.00  0.00    -0.000 A 
ATOM      8  C   UNL     1       6.449   6.211 -10.621  0.00  0.00    -0.000 A 
ATOM      9  C   UNL     1       6.613   5.772  -9.314  0.00  0.00    -0.000 A 
ATOM     10  C   UNL     1       5.468   5.320  -8.666  0.00  0.00    -0.001 A 
ENDBRANCH   3   5
BRANCH   3  11
ATOM     11  C   UNL     1       1.883   5.404  -9.496  0.00  0.00    +0.019 A 
ATOM     12  C   UNL     1       1.286   6.637  -9.449  0.00  0.00    -0.001 A 
ATOM     13  C   UNL     1       0.384   6.935 -10.460  0.00  0.00    -0.000 A 
ATOM     14  C   UNL     1      -0.061   5.928 -11.289  0.00  0.00    -0.000 A 
ATOM     15  C   UNL     1       0.295   4.625 -11.077  0.00  0.00    -0.000 A 
ATOM     16  C   UNL     1       1.259   4.360 -10.146  0.00  0.00    -0.001 A 
ENDBRANCH   3  11
ENDBRANCH   2   3
BRANCH   2  17
ATOM     17  O   UNL     1       2.284   6.098  -6.392  0.00  0.00    -0.450 OA
BRANCH  17  18
ATOM     18  C   UNL     1       2.841   5.965  -5.078  0.00  0.00    +0.180 C 
ATOM     19  C   UNL     1       2.371   7.116  -4.319  0.00  0.00    +0.099 C 
ATOM     20  C   UNL     1       3.461   7.520  -3.152  0.00  0.00    +0.062 C 
ATOM     21  N   UNL     1       3.908   6.079  -2.865  0.00  0.00    +0.289 N 
ATOM     22  C   UNL     1       5.029   5.680  -3.833  0.00  0.00    +0.062 C 
ATOM     23  C   UNL     1       5.743   7.156  -3.682  0.00  0.00    +0.061 C 
ATOM     24  C   UNL     1       2.992   5.179  -2.540  0.00  0.00    +0.108 C 
ATOM     25  C   UNL     1       2.697   5.382  -1.057  0.00  0.00    +0.067 C 
ATOM     26  C   UNL     1       3.568   6.579  -0.687  0.00  0.00    +0.067 C 
ATOM     27  C   UNL     1       4.714   6.336  -1.665  0.00  0.00    +0.108 C 
ATOM     28  C   UNL     1       4.637   7.933  -4.218  0.00  0.00    +0.061 C 
ATOM     29  C   UNL     1       4.287   6.017  -5.258  0.00  0.00    +0.099 C 
ENDBRANCH  17  18
ENDBRANCH   2  17
TORSDOF 5
ENDMDL
MODEL 7
REMARK VINA RESULT:      -8.9      2.724      5.450
REMARK  Name = 
REMARK  5 active torsions:
REMARK  status: ('A' for Active; 'I' for Inactive)
REMARK    1  A    between atoms: C_2  and  O_3
REMARK    2  A    between atoms: C_2  and  C_16
REMARK    3  A    between atoms: O_3  and  C_4
REMARK    4  A    between atoms: C_16  and  C_18
REMARK    5  A    between atoms: C_16  and  C_24
REMARK                            x       y       z     vdW  Elec       q    Type
REMARK                         _______ _______ _______ _____ _____    ______ ____
ROOT
ATOM      1  O   UNL     1       1.860   5.265  -1.340  0.00  0.00    -0.247 OA
ATOM      2  C   UNL     1       1.946   5.600  -1.387  0.00  0.00    +0.353 C 
ENDROOT
BRANCH   2   3
ATOM      3  C   UNL     1       3.378   5.854  -1.274  0.00  0.00    +0.252 C 
ATOM      4  O   UNL     1       3.857   4.663  -0.687  0.00  0.00    -0.205 OA
BRANCH   3   5
ATOM      5  C   UNL     1       3.757   6.961  -0.389  0.00  0.00    +0.019 A 
ATOM      6  C   UNL     1       4.922   6.846   0.358  0.00  0.00    -0.001 A 
ATOM      7  C   UNL     1       5.037   7.384   1.635  0.00  0.00    -0.000 A 
ATOM      8  C   UNL     1       3.920   7.974   2.214  0.00  0.00    -0.000 A 
ATOM      9  C   UNL     1       2.979   8.480   1.327  0.00  0.00    -0.000 A 
ATOM     10  C   UNL     1       2.749   7.730   0.178  0.00  0.00    -0.001 A 
ENDBRANCH   3   5
BRANCH   3  11
ATOM     11  C   UNL     1       3.960   6.001  -2.617  0.00  0.00    +0.019 A 
ATOM     12  C   UNL     1       4.233   4.924  -3.420  0.00  0.00    -0.001 A 
ATOM     13  C   UNL     1       4.547   5.195  -4.743  0.00  0.00    -0.000 A 
ATOM     14  C   UNL     1       4.822   6.491  -5.124  0.00  0.00    -0.000 A 
ATOM     15  C   UNL     1       4.884   7.502  -4.205  0.00  0.00    -0.000 A 
ATOM     16  C   UNL     1       4.475   7.242  -2.927  0.00  0.00    -0.001 A 
ENDBRANCH   3  11
ENDBRANCH   2   3
BRANCH   2  17
ATOM     17  O   UNL     1       0.913   6.330  -1.924  0.00  0.00    -0.450 OA
BRANCH  17  18
ATOM     18  C   UNL     1       0.539   5.916  -3.244  0.00  0.00    +0.180 C 
ATOM     19  C   UNL     1       1.074   6.923  -4.152  0.00  0.00    +0.099 C 
ATOM     20  C   UNL     1       0.139   7.035  -5.502  0.00  0.00    +0.062 C 
ATOM     21  N   UNL     1      -0.226   5.544  -5.552  0.00  0.00    +0.289 N 
ATOM     22  C   UNL     1      -1.455   5.281  -4.672  0.00  0.00    +0.062 C 
ATOM     23  C   UNL     1      -2.182   6.661  -5.200  0.00  0.00    +0.061 C 
ATOM     24  C   UNL     1       0.748   4.648  -5.575  0.00  0.00    +0.108 C 
ATOM     25  C   UNL     1       1.232   4.576  -7.020  0.00  0.00    +0.067 C 
ATOM     26  C   UNL     1       0.385   5.632  -7.726  0.00  0.00    +0.067 C 
ATOM     27  C   UNL     1      -0.872   5.523  -6.870  0.00  0.00    +0.108 C 
ATOM     28  C   UNL     1      -1.180   7.584  -4.695  0.00  0.00    +0.061 C 
ATOM     29  C   UNL     1      -0.919   5.926  -3.261  0.00  0.00    +0.099 C 
ENDBRANCH  17  18
ENDBRANCH   2  17
TORSDOF 5
ENDMDL
MODEL 8
REMARK VINA RESULT:      -8.9      0.668      3.243
REMARK  Name = 
REMARK  5 active torsions:
REMARK  status: ('A' for Active; 'I' for Inactive)
REMARK    1  A    between atoms: C_2  and  O_3
REMARK    2  A    between atoms: C_2  and  C_16
REMARK    3  A    between atoms: O_3  and  C_4
REMARK    4  A    between atoms: C_16  and  C_18
REMARK    5  A    between atoms: C_16  and  C_24
REMARK                            x       y       z     vdW  Elec       q    Type
REMARK                         _______ _______ _______ _____ _____    ______ ____
ROOT
ATOM      1  O   UNL     1       2.307   6.442  -5.079  0.00  0.00    -0.247 OA
ATOM      2  C   UNL     1       2.220   6.112  -5.152  0.00  0.00    +0.353 C 
ENDROOT
BRANCH   2   3
ATOM      3  C   UNL     1       0.897   5.737  -4.666  0.00  0.00    +0.252 C 
ATOM      4  O   UNL     1       0.818   4.371  -5.010  0.00  0.00    -0.205 OA
BRANCH   3   5
ATOM      5  C   UNL     1      -0.231   6.418  -5.310  0.00  0.00    +0.019 A 
ATOM      6  C   UNL     1      -0.726   7.579  -4.729  0.00  0.00    -0.001 A 
ATOM      7  C   UNL     1      -2.078   7.903  -4.764  0.00  0.00    -0.000 A 
ATOM      8  C   UNL     1      -2.970   6.992  -5.318  0.00  0.00    -0.000 A 
ATOM      9  C   UNL     1      -2.436   6.127  -6.264  0.00  0.00    -0.000 A 
ATOM     10  C   UNL     1      -1.153   5.653  -6.012  0.00  0.00    -0.001 A 
ENDBRANCH   3   5
BRANCH   3  11
ATOM     11  C   UNL     1       0.854   5.871  -3.201  0.00  0.00    +0.019 A 
ATOM     12  C   UNL     1       1.926   6.317  -2.473  0.00  0.00    -0.001 A 
ATOM     13  C   UNL     1       1.692   6.632  -1.143  0.00  0.00    -0.000 A 
ATOM     14  C   UNL     1       0.504   6.253  -0.555  0.00  0.00    -0.000 A 
ATOM     15  C   UNL     1      -0.408   5.488  -1.229  0.00  0.00    -0.000 A 
ATOM     16  C   UNL     1      -0.213   5.272  -2.564  0.00  0.00    -0.001 A 
ENDBRANCH   3  11
ENDBRANCH   2   3
BRANCH   2  17
ATOM     17  O   UNL     1       3.063   5.550  -6.080  0.00  0.00    -0.450 OA
BRANCH  17  18
ATOM     18  C   UNL     1       2.729   5.876  -7.435  0.00  0.00    +0.180 C 
ATOM     19  C   UNL     1       2.156   4.667  -8.014  0.00  0.00    +0.099 C 
ATOM     20  C   UNL     1       2.438   4.615  -9.635  0.00  0.00    +0.062 C 
ATOM     21  N   UNL     1       2.336   6.132  -9.850  0.00  0.00    +0.289 N 
ATOM     22  C   UNL     1       3.699   6.786  -9.592  0.00  0.00    +0.062 C 
ATOM     23  C   UNL     1       4.481   5.564 -10.372  0.00  0.00    +0.061 C 
ATOM     24  C   UNL     1       1.239   6.761  -9.456  0.00  0.00    +0.108 C 
ATOM     25  C   UNL     1       0.199   6.538 -10.549  0.00  0.00    +0.067 C 
ATOM     26  C   UNL     1       0.924   5.634 -11.543  0.00  0.00    +0.067 C 
ATOM     27  C   UNL     1       2.344   6.145 -11.317  0.00  0.00    +0.108 C 
ATOM     28  C   UNL     1       4.066   4.499  -9.474  0.00  0.00    +0.061 C 
ATOM     29  C   UNL     1       3.992   6.211  -8.082  0.00  0.00    +0.099 C 
ENDBRANCH  17  18
ENDBRANCH   2  17
TORSDOF 5
ENDMDL
MODEL 9
REMARK VINA RESULT:      -8.9      2.403      7.642
REMARK  Name = 
REMARK  5 active torsions:
REMARK  status: ('A' for Active; 'I' for Inactive)
REMARK    1  A    between atoms: C_2  and  O_3
REMARK    2  A    between atoms: C_2  and  C_16
REMARK    3  A    between atoms: O_3  and  C_4
REMARK    4  A    between atoms: C_16  and  C_18
REMARK    5  A    between atoms: C_16  and  C_24
REMARK                            x       y       z     vdW  Elec       q    Type
REMARK                         _______ _______ _______ _____ _____    ______ ____
ROOT
ATOM      1  O   UNL     1       4.134   5.041  -8.659  0.00  0.00    -0.247 OA
ATOM      2  C   UNL     1       4.250   5.371  -8.667  0.00  0.00    +0.353 C 
ENDROOT
BRANCH   2   3
ATOM      3  C   UNL     1       3.804   6.117  -9.838  0.00  0.00    +0.252 C 
ATOM      4  O   UNL     1       3.381   7.343  -9.280  0.00  0.00    -0.205 OA
BRANCH   3   5
ATOM      5  C   UNL     1       2.661   5.544 -10.556  0.00  0.00    +0.019 A 
ATOM      6  C   UNL     1       2.237   6.159 -11.728  0.00  0.00    -0.001 A 
ATOM      7  C   UNL     1       0.896   6.206 -12.093  0.00  0.00    -0.000 A 
ATOM      8  C   UNL     1      -0.055   5.704 -11.213  0.00  0.00    -0.000 A 
ATOM      9  C   UNL     1       0.395   4.724 -10.338  0.00  0.00    -0.000 A 
ATOM     10  C   UNL     1       1.675   4.896  -9.823  0.00  0.00    -0.001 A 
ENDBRANCH   3   5
BRANCH   3  11
ATOM     11  C   UNL     1       4.948   6.360 -10.731  0.00  0.00    +0.019 A 
ATOM     12  C   UNL     1       5.499   7.604 -10.895  0.00  0.00    -0.001 A 
ATOM     13  C   UNL     1       6.712   7.667 -11.564  0.00  0.00    -0.000 A 
ATOM     14  C   UNL     1       7.171   6.559 -12.243  0.00  0.00    -0.000 A 
ATOM     15  C   UNL     1       6.409   5.427 -12.351  0.00  0.00    -0.000 A 
ATOM     16  C   UNL     1       5.267   5.342 -11.606  0.00  0.00    -0.001 A 
ENDBRANCH   3  11
ENDBRANCH   2   3
BRANCH   2  17
ATOM     17  O   UNL     1       4.770   5.763  -7.457  0.00  0.00    -0.450 OA
BRANCH  17  18
ATOM     18  C   UNL     1       3.882   5.555  -6.351  0.00  0.00    +0.180 C 
ATOM     19  C   UNL     1       3.277   6.850  -6.066  0.00  0.00    +0.099 C 
ATOM     20  C   UNL     1       2.888   6.964  -4.471  0.00  0.00    +0.062 C 
ATOM     21  N   UNL     1       2.524   5.482  -4.302  0.00  0.00    +0.289 N 
ATOM     22  C   UNL     1       3.785   4.671  -3.979  0.00  0.00    +0.062 C 
ATOM     23  C   UNL     1       4.330   5.844  -2.959  0.00  0.00    +0.061 C 
ATOM     24  C   UNL     1       1.610   4.953  -5.102  0.00  0.00    +0.108 C 
ATOM     25  C   UNL     1       0.254   5.350  -4.527  0.00  0.00    +0.067 C 
ATOM     26  C   UNL     1       0.622   6.226  -3.332  0.00  0.00    +0.067 C 
ATOM     27  C   UNL     1       1.940   5.553  -2.957  0.00  0.00    +0.108 C 
ATOM     28  C   UNL     1       4.444   6.894  -3.957  0.00  0.00    +0.061 C 
ATOM     29  C   UNL     1       4.727   5.123  -5.245  0.00  0.00    +0.099 C 
ENDBRANCH  17  18
ENDBRANCH   2  17
TORSDOF 5
ENDMDL
