MODEL 1
REMARK VINA RESULT:      -7.7      0.000      0.000
REMARK  Name = 
REMARK  6 active torsions:
REMARK  status: ('A' for Active; 'I' for Inactive)
REMARK    1  A    between atoms: C_2  and  O_4
REMARK    2  A    between atoms: O_4  and  C_5
REMARK    3  A    between atoms: C_6  and  N_7
REMARK    4  A    between atoms: C_21  and  O_22
REMARK    5  A    between atoms: O_22  and  C_23
REMARK    6  A    between atoms: C_26  and  N_27
REMARK                            x       y       z     vdW  Elec       q    Type
REMARK                         _______ _______ _______ _____ _____    ______ ____
ROOT
ATOM      1  C   UNL     1       1.112   6.412  -3.675  0.00  0.00    +0.217 C 
ATOM      2  C   UNL     1       1.328   5.688  -5.112  0.00  0.00    +0.043 C 
ATOM      3  C   UNL     1       2.625   6.543  -5.536  0.00  0.00    +0.009 C 
ATOM      4  C   UNL     1       3.122   5.457  -6.712  0.00  0.00    +0.000 C 
ATOM      5  C   UNL     1       2.205   6.418  -7.758  0.00  0.00    +0.000 C 
ATOM      6  C   UNL     1       0.882   5.526  -7.441  0.00  0.00    +0.000 C 
ATOM      7  C   UNL     1       2.728   5.695  -9.106  0.00  0.00    +0.002 C 
ATOM      8  C   UNL     1       3.862   6.849  -9.349  0.00  0.00    +0.004 C 
ATOM      9  C   UNL     1       4.653   6.123 -10.561  0.00  0.00    +0.045 C 
ATOM     10  C   UNL     1       3.524   5.435 -11.494  0.00  0.00    +0.183 C 
ATOM     11  C   UNL     1       2.443   6.752 -11.336  0.00  0.00    +0.098 C 
ATOM     12  C   UNL     1       4.917   6.208  -8.284  0.00  0.00    +0.000 C 
ATOM     13  C   UNL     1       3.303   4.416  -8.944  0.00  0.00    +0.000 C 
ATOM     14  C   UNL     1       1.683   5.940 -10.143  0.00  0.00    +0.020 C 
ATOM     15  C   UNL     1       4.437   6.352  -6.932  0.00  0.00    +0.000 C 
ATOM     16  C   UNL     1       3.396   5.846  -4.283  0.00  0.00    +0.059 C 
ATOM     17  C   UNL     1       1.626   4.281  -5.023  0.00  0.00    +0.004 C 
ATOM     18  C   UNL     1       0.367   6.120  -6.121  0.00  0.00    +0.004 C 
ATOM     19  C   UNL     1       2.650   7.182  -3.693  0.00  0.00    +0.099 C 
ENDROOT
BRANCH  19  20
ATOM     20  N   UNL     1       3.096   6.988  -2.223  0.00  0.00    +0.300 N 
ATOM     21  C   UNL     1       3.968   8.174  -2.298  0.00  0.00    +0.109 C 
ATOM     22  C   UNL     1       4.153   9.007  -1.159  0.00  0.00    +0.061 C 
ATOM     23  C   UNL     1       3.384   8.642   0.056  0.00  0.00    +0.012 C 
ATOM     24  C   UNL     1       2.007   8.266  -0.402  0.00  0.00    +0.061 C 
ATOM     25  C   UNL     1       2.001   7.161  -1.392  0.00  0.00    +0.109 C 
ATOM     26  C   UNL     1       4.080   6.042  -2.005  0.00  0.00    +0.170 C 
ENDBRANCH  19  20
BRANCH  11  27
ATOM     27  N   UNL     1       1.525   6.188 -12.461  0.00  0.00    -0.271 NA
ATOM     28  C   UNL     1       0.330   5.687 -11.894  0.00  0.00    +0.072 C 
ATOM     29  C   UNL     1      -0.505   6.729 -11.225  0.00  0.00    +0.017 C 
ATOM     30  C   UNL     1      -0.695   7.964 -12.040  0.00  0.00    +0.003 C 
ATOM     31  C   UNL     1       0.135   8.082 -13.255  0.00  0.00    +0.017 C 
ATOM     32  C   UNL     1       1.367   7.294 -13.343  0.00  0.00    +0.072 C 
ENDBRANCH  11  27
BRANCH   1  33
ATOM     33  O   UNL     1       1.553   5.201  -2.856  0.00  0.00    -0.446 OA
BRANCH  33  35
ATOM     34  C   UNL     1      -0.817   5.299  -2.091  0.00  0.00    +0.121 C 
ATOM     35  C   UNL     1       0.543   4.677  -2.068  0.00  0.00    +0.318 C 
ATOM     36  O   UNL     1       0.798   4.007  -1.022  0.00  0.00    -0.250 OA
ENDBRANCH  33  35
ENDBRANCH   1  33
BRANCH  10  37
ATOM     37  O   UNL     1       4.166   6.019 -12.759  0.00  0.00    -0.451 OA
BRANCH  37  38
ATOM     38  C   UNL     1       5.026   5.050 -13.287  0.00  0.00    +0.317 C 
ATOM     39  O   UNL     1       4.486   3.959 -13.641  0.00  0.00    -0.250 OA
ATOM     40  C   UNL     1       6.477   5.228 -13.484  0.00  0.00    +0.121 C 
ENDBRANCH  37  38
ENDBRANCH  10  37
TORSDOF 6
ENDMDL
MODEL 2
REMARK VINA RESULT:      -6.7      2.557     10.184
REMARK  Name = 
REMARK  6 active torsions:
REMARK  status: ('A' for Active; 'I' for Inactive)
REMARK    1  A    between atoms: C_2  and  O_4
REMARK    2  A    between atoms: O_4  and  C_5
REMARK    3  A    between atoms: C_6  and  N_7
REMARK    4  A    between atoms: C_21  and  O_22
REMARK    5  A    between atoms: O_22  and  C_23
REMARK    6  A    between atoms: C_26  and  N_27
REMARK                            x       y       z     vdW  Elec       q    Type
REMARK                         _______ _______ _______ _____ _____    ______ ____
ROOT
ATOM      1  C   UNL     1       2.945   6.188  -6.884  0.00  0.00    +0.217 C 
ATOM      2  C   UNL     1       2.624   5.819  -5.337  0.00  0.00    +0.043 C 
ATOM      3  C   UNL     1       1.062   6.211  -5.393  0.00  0.00    +0.009 C 
ATOM      4  C   UNL     1       0.659   5.349  -4.013  0.00  0.00    +0.000 C 
ATOM      5  C   UNL     1       0.948   6.808  -3.211  0.00  0.00    +0.000 C 
ATOM      6  C   UNL     1       2.518   6.420  -3.039  0.00  0.00    +0.000 C 
ATOM      7  C   UNL     1       0.365   6.304  -1.791  0.00  0.00    +0.002 C 
ATOM      8  C   UNL     1      -1.095   6.980  -2.089  0.00  0.00    +0.004 C 
ATOM      9  C   UNL     1      -1.890   6.340  -0.832  0.00  0.00    +0.045 C 
ATOM     10  C   UNL     1      -0.865   6.374   0.420  0.00  0.00    +0.183 C 
ATOM     11  C   UNL     1      -0.244   7.912   0.003  0.00  0.00    +0.098 C 
ATOM     12  C   UNL     1      -1.606   5.750  -3.031  0.00  0.00    +0.000 C 
ATOM     13  C   UNL     1       0.275   4.907  -1.614  0.00  0.00    +0.000 C 
ATOM     14  C   UNL     1       0.997   7.169  -0.751  0.00  0.00    +0.020 C 
ATOM     15  C   UNL     1      -0.881   5.719  -4.276  0.00  0.00    +0.000 C 
ATOM     16  C   UNL     1       0.876   4.990  -6.453  0.00  0.00    +0.059 C 
ATOM     17  C   UNL     1       2.809   4.428  -5.013  0.00  0.00    +0.004 C 
ATOM     18  C   UNL     1       3.127   6.813  -4.394  0.00  0.00    +0.004 C 
ATOM     19  C   UNL     1       1.288   6.315  -7.328  0.00  0.00    +0.099 C 
ENDROOT
BRANCH  19  20
ATOM     20  N   UNL     1       1.296   5.609  -8.706  0.00  0.00    +0.300 N 
ATOM     21  C   UNL     1      -0.143   5.874  -8.886  0.00  0.00    +0.109 C 
ATOM     22  C   UNL     1      -0.673   6.136 -10.180  0.00  0.00    +0.061 C 
ATOM     23  C   UNL     1       0.304   6.181 -11.295  0.00  0.00    +0.012 C 
ATOM     24  C   UNL     1       1.500   6.931 -10.791  0.00  0.00    +0.061 C 
ATOM     25  C   UNL     1       2.101   6.326  -9.577  0.00  0.00    +0.109 C 
ATOM     26  C   UNL     1       1.234   4.229  -8.685  0.00  0.00    +0.170 C 
ENDBRANCH  19  20
BRANCH  11  27
ATOM     27  N   UNL     1       0.502   8.027   1.366  0.00  0.00    -0.271 NA
ATOM     28  C   UNL     1       1.898   7.937   1.154  0.00  0.00    +0.072 C 
ATOM     29  C   UNL     1       2.458   9.050   0.332  0.00  0.00    +0.017 C 
ATOM     30  C   UNL     1       1.998  10.405   0.758  0.00  0.00    +0.003 C 
ATOM     31  C   UNL     1       0.905  10.444   1.749  0.00  0.00    +0.017 C 
ATOM     32  C   UNL     1       0.042   9.268   1.890  0.00  0.00    +0.072 C 
ENDBRANCH  11  27
BRANCH   1  33
ATOM     33  O   UNL     1       3.116   4.738  -7.328  0.00  0.00    -0.446 OA
BRANCH  33  35
ATOM     34  C   UNL     1       5.413   5.493  -7.931  0.00  0.00    +0.121 C 
ATOM     35  C   UNL     1       4.286   4.516  -8.034  0.00  0.00    +0.318 C 
ATOM     36  O   UNL     1       4.303   3.801  -9.082  0.00  0.00    -0.250 OA
ENDBRANCH  33  35
ENDBRANCH   1  33
BRANCH  10  37
ATOM     37  O   UNL     1      -1.944   6.974   1.330  0.00  0.00    -0.451 OA
BRANCH  37  38
ATOM     38  C   UNL     1      -2.015   6.188   2.484  0.00  0.00    +0.317 C 
ATOM     39  O   UNL     1      -2.946   5.328   2.517  0.00  0.00    -0.250 OA
ATOM     40  C   UNL     1      -1.078   6.273   3.621  0.00  0.00    +0.121 C 
ENDBRANCH  37  38
ENDBRANCH  10  37
TORSDOF 6
ENDMDL
MODEL 3
REMARK VINA RESULT:      -6.2      1.162      9.502
REMARK  Name = 
REMARK  6 active torsions:
REMARK  status: ('A' for Active; 'I' for Inactive)
REMARK    1  A    between atoms: C_2  and  O_4
REMARK    2  A    between atoms: O_4  and  C_5
REMARK    3  A    between atoms: C_6  and  N_7
REMARK    4  A    between atoms: C_21  and  O_22
REMARK    5  A    between atoms: O_22  and  C_23
REMARK    6  A    between atoms: C_26  and  N_27
REMARK                            x       y       z     vdW  Elec       q    Type
REMARK                         _______ _______ _______ _____ _____    ______ ____
ROOT
ATOM      1  C   UNL     1       3.399   6.392 -11.332  0.00  0.00    +0.217 C 
ATOM      2  C   UNL     1       3.365   5.723  -9.854  0.00  0.00    +0.043 C 
ATOM      3  C   UNL     1       1.875   6.210  -9.485  0.00  0.00    +0.009 C 
ATOM      4  C   UNL     1       1.676   5.101  -8.244  0.00  0.00    +0.000 C 
ATOM      5  C   UNL     1       2.273   6.338  -7.259  0.00  0.00    +0.000 C 
ATOM      6  C   UNL     1       3.796   5.829  -7.518  0.00  0.00    +0.000 C 
ATOM      7  C   UNL     1       1.945   5.580  -5.869  0.00  0.00    +0.002 C 
ATOM      8  C   UNL     1       0.533   6.388  -5.699  0.00  0.00    +0.004 C 
ATOM      9  C   UNL     1      -0.049   5.545  -4.445  0.00  0.00    +0.045 C 
ATOM     10  C   UNL     1       1.209   5.253  -3.470  0.00  0.00    +0.183 C 
ATOM     11  C   UNL     1       1.887   6.805  -3.708  0.00  0.00    +0.098 C 
ATOM     12  C   UNL     1      -0.285   5.419  -6.724  0.00  0.00    +0.000 C 
ATOM     13  C   UNL     1       1.749   4.184  -5.952  0.00  0.00    +0.000 C 
ATOM     14  C   UNL     1       2.864   6.166  -4.848  0.00  0.00    +0.020 C 
ATOM     15  C   UNL     1       0.162   5.609  -8.081  0.00  0.00    +0.000 C 
ATOM     16  C   UNL     1       1.350   5.254 -10.693  0.00  0.00    +0.059 C 
ATOM     17  C   UNL     1       3.468   4.286  -9.855  0.00  0.00    +0.004 C 
ATOM     18  C   UNL     1       4.152   6.463  -8.872  0.00  0.00    +0.004 C 
ATOM     19  C   UNL     1       1.708   6.707 -11.363  0.00  0.00    +0.099 C 
ENDROOT
BRANCH  19  20
ATOM     20  N   UNL     1       1.360   6.310 -12.819  0.00  0.00    +0.300 N 
ATOM     21  C   UNL     1       0.066   7.011 -12.734  0.00  0.00    +0.109 C 
ATOM     22  C   UNL     1      -0.480   7.661 -13.876  0.00  0.00    +0.061 C 
ATOM     23  C   UNL     1       0.348   7.635 -15.107  0.00  0.00    +0.012 C 
ATOM     24  C   UNL     1       1.762   7.892 -14.682  0.00  0.00    +0.061 C 
ATOM     25  C   UNL     1       2.259   6.916 -13.681  0.00  0.00    +0.109 C 
ATOM     26  C   UNL     1       0.871   5.030 -13.001  0.00  0.00    +0.170 C 
ENDBRANCH  19  20
BRANCH  11  27
ATOM     27  N   UNL     1       2.905   6.585  -2.549  0.00  0.00    -0.271 NA
ATOM     28  C   UNL     1       4.105   6.040  -3.066  0.00  0.00    +0.072 C 
ATOM     29  C   UNL     1       4.818   6.944  -4.016  0.00  0.00    +0.017 C 
ATOM     30  C   UNL     1       4.953   8.348  -3.528  0.00  0.00    +0.003 C 
ATOM     31  C   UNL     1       4.182   8.698  -2.318  0.00  0.00    +0.017 C 
ATOM     32  C   UNL     1       3.022   7.876  -1.963  0.00  0.00    +0.072 C 
ENDBRANCH  11  27
BRANCH   1  33
ATOM     33  O   UNL     1       3.324   5.060 -12.076  0.00  0.00    -0.446 OA
BRANCH  33  35
ATOM     34  C   UNL     1       5.659   5.667 -12.700  0.00  0.00    +0.121 C 
ATOM     35  C   UNL     1       4.456   4.787 -12.824  0.00  0.00    +0.318 C 
ATOM     36  O   UNL     1       4.392   4.132 -13.908  0.00  0.00    -0.250 OA
ENDBRANCH  33  35
ENDBRANCH   1  33
BRANCH  10  37
ATOM     37  O   UNL     1       0.408   5.710  -2.244  0.00  0.00    -0.451 OA
BRANCH  37  38
ATOM     38  C   UNL     1       0.985   5.124  -1.114  0.00  0.00    +0.317 C 
ATOM     39  O   UNL     1       0.806   5.734  -0.017  0.00  0.00    -0.250 OA
ATOM     40  C   UNL     1       1.741   3.857  -1.114  0.00  0.00    +0.121 C 
ENDBRANCH  37  38
ENDBRANCH  10  37
TORSDOF 6
ENDMDL
MODEL 4
REMARK VINA RESULT:      -6.0      2.834     10.425
REMARK  Name = 
REMARK  6 active torsions:
REMARK  status: ('A' for Active; 'I' for Inactive)
REMARK    1  A    between atoms: C_2  and  O_4
REMARK    2  A    between atoms: O_4  and  C_5
REMARK    3  A    between atoms: C_6  and  N_7
REMARK    4  A    between atoms: C_21  and  O_22
REMARK    5  A    between atoms: O_22  and  C_23
REMARK    6  A    between atoms: C_26  and  N_27
REMARK                            x       y       z     vdW  Elec       q    Type
REMARK                         _______ _______ _______ _____ _____    ______ ____
ROOT
ATOM      1  C   UNL     1       3.856   6.645  -6.408  0.00  0.00    +0.217 C 
ATOM      2  C   UNL     1       4.167   6.556  -4.818  0.00  0.00    +0.043 C 
ATOM      3  C   UNL     1       2.643   6.767  -4.339  0.00  0.00    +0.009 C 
ATOM      4  C   UNL     1       2.902   6.156  -2.799  0.00  0.00    +0.000 C 
ATOM      5  C   UNL     1       3.205   7.767  -2.385  0.00  0.00    +0.000 C 
ATOM      6  C   UNL     1       4.777   7.583  -2.762  0.00  0.00    +0.000 C 
ATOM      7  C   UNL     1       3.253   7.495  -0.793  0.00  0.00    +0.002 C 
ATOM      8  C   UNL     1       1.691   7.945  -0.615  0.00  0.00    +0.004 C 
ATOM      9  C   UNL     1       1.509   7.486   0.927  0.00  0.00    +0.045 C 
ATOM     10  C   UNL     1       2.888   7.871   1.683  0.00  0.00    +0.183 C 
ATOM     11  C   UNL     1       3.054   9.352   0.845  0.00  0.00    +0.098 C 
ATOM     12  C   UNL     1       1.095   6.509  -1.106  0.00  0.00    +0.000 C 
ATOM     13  C   UNL     1       3.467   6.157  -0.395  0.00  0.00    +0.000 C 
ATOM     14  C   UNL     1       4.057   8.607  -0.204  0.00  0.00    +0.020 C 
ATOM     15  C   UNL     1       1.330   6.308  -2.514  0.00  0.00    +0.000 C 
ATOM     16  C   UNL     1       2.304   5.349  -5.062  0.00  0.00    +0.059 C 
ATOM     17  C   UNL     1       4.685   5.282  -4.389  0.00  0.00    +0.004 C 
ATOM     18  C   UNL     1       4.795   7.762  -4.288  0.00  0.00    +0.004 C 
ATOM     19  C   UNL     1       2.153   6.511  -6.209  0.00  0.00    +0.099 C 
ENDROOT
BRANCH  19  20
ATOM     20  N   UNL     1       1.793   5.554  -7.371  0.00  0.00    +0.300 N 
ATOM     21  C   UNL     1       0.359   5.639  -7.041  0.00  0.00    +0.109 C 
ATOM     22  C   UNL     1      -0.623   5.591  -8.069  0.00  0.00    +0.061 C 
ATOM     23  C   UNL     1      -0.116   5.509  -9.461  0.00  0.00    +0.012 C 
ATOM     24  C   UNL     1       1.044   6.454  -9.554  0.00  0.00    +0.061 C 
ATOM     25  C   UNL     1       2.118   6.159  -8.574  0.00  0.00    +0.109 C 
ATOM     26  C   UNL     1       1.965   4.205  -7.124  0.00  0.00    +0.170 C 
ENDBRANCH  19  20
BRANCH  11  27
ATOM     27  N   UNL     1       4.202   9.809   1.795  0.00  0.00    -0.271 NA
ATOM     28  C   UNL     1       5.194  10.489   1.050  0.00  0.00    +0.072 C 
ATOM     29  C   UNL     1       4.715  11.753   0.416  0.00  0.00    +0.017 C 
ATOM     30  C   UNL     1       3.943  12.635   1.340  0.00  0.00    +0.003 C 
ATOM     31  C   UNL     1       3.567  12.051   2.643  0.00  0.00    +0.017 C 
ATOM     32  C   UNL     1       3.528  10.593   2.773  0.00  0.00    +0.072 C 
ENDBRANCH  11  27
BRANCH   1  33
ATOM     33  O   UNL     1       4.101   5.161  -6.669  0.00  0.00    -0.446 OA
BRANCH  33  35
ATOM     34  C   UNL     1       5.875   5.996  -8.207  0.00  0.00    +0.121 C 
ATOM     35  C   UNL     1       4.938   4.926  -7.745  0.00  0.00    +0.318 C 
ATOM     36  O   UNL     1       4.658   4.055  -8.625  0.00  0.00    -0.250 OA
ENDBRANCH  33  35
ENDBRANCH   1  33
BRANCH  10  37
ATOM     37  O   UNL     1       2.113   8.524   2.835  0.00  0.00    -0.451 OA
BRANCH  37  38
ATOM     38  C   UNL     1       1.118   7.631   3.241  0.00  0.00    +0.317 C 
ATOM     39  O   UNL     1       1.520   6.542   3.750  0.00  0.00    -0.250 OA
ATOM     40  C   UNL     1      -0.333   7.886   3.148  0.00  0.00    +0.121 C 
ENDBRANCH  37  38
ENDBRANCH  10  37
TORSDOF 6
ENDMDL
MODEL 5
REMARK VINA RESULT:      -4.9      1.447      9.519
REMARK  Name = 
REMARK  6 active torsions:
REMARK  status: ('A' for Active; 'I' for Inactive)
REMARK    1  A    between atoms: C_2  and  O_4
REMARK    2  A    between atoms: O_4  and  C_5
REMARK    3  A    between atoms: C_6  and  N_7
REMARK    4  A    between atoms: C_21  and  O_22
REMARK    5  A    between atoms: O_22  and  C_23
REMARK    6  A    between atoms: C_26  and  N_27
REMARK                            x       y       z     vdW  Elec       q    Type
REMARK                         _______ _______ _______ _____ _____    ______ ____
ROOT
ATOM      1  C   UNL     1       3.051   6.763  -9.414  0.00  0.00    +0.217 C 
ATOM      2  C   UNL     1       3.119   6.150  -7.912  0.00  0.00    +0.043 C 
ATOM      3  C   UNL     1       1.573   6.424  -7.550  0.00  0.00    +0.009 C 
ATOM      4  C   UNL     1       1.543   5.343  -6.270  0.00  0.00    +0.000 C 
ATOM      5  C   UNL     1       1.951   6.689  -5.333  0.00  0.00    +0.000 C 
ATOM      6  C   UNL     1       3.533   6.402  -5.585  0.00  0.00    +0.000 C 
ATOM      7  C   UNL     1       1.742   5.942  -3.915  0.00  0.00    +0.002 C 
ATOM      8  C   UNL     1       0.226   6.538  -3.764  0.00  0.00    +0.004 C 
ATOM      9  C   UNL     1      -0.223   5.663  -2.478  0.00  0.00    +0.045 C 
ATOM     10  C   UNL     1       1.066   5.595  -1.501  0.00  0.00    +0.183 C 
ATOM     11  C   UNL     1       1.506   7.221  -1.799  0.00  0.00    +0.098 C 
ATOM     12  C   UNL     1      -0.441   5.421  -4.748  0.00  0.00    +0.000 C 
ATOM     13  C   UNL     1       1.754   4.530  -3.947  0.00  0.00    +0.000 C 
ATOM     14  C   UNL     1       2.565   6.693  -2.922  0.00  0.00    +0.020 C 
ATOM     15  C   UNL     1      -0.030   5.626  -6.114  0.00  0.00    +0.000 C 
ATOM     16  C   UNL     1       1.194   5.358  -8.720  0.00  0.00    +0.059 C 
ATOM     17  C   UNL     1       3.434   4.745  -7.863  0.00  0.00    +0.004 C 
ATOM     18  C   UNL     1       3.788   7.033  -6.963  0.00  0.00    +0.004 C 
ATOM     19  C   UNL     1       1.332   6.823  -9.444  0.00  0.00    +0.099 C 
ENDROOT
BRANCH  19  20
ATOM     20  N   UNL     1       1.044   6.327 -10.882  0.00  0.00    +0.300 N 
ATOM     21  C   UNL     1      -0.368   6.738 -10.776  0.00  0.00    +0.109 C 
ATOM     22  C   UNL     1      -1.064   7.230 -11.915  0.00  0.00    +0.061 C 
ATOM     23  C   UNL     1      -0.277   7.351 -13.167  0.00  0.00    +0.012 C 
ATOM     24  C   UNL     1       1.058   7.914 -12.784  0.00  0.00    +0.061 C 
ATOM     25  C   UNL     1       1.774   7.090 -11.779  0.00  0.00    +0.109 C 
ATOM     26  C   UNL     1       0.836   4.968 -11.028  0.00  0.00    +0.170 C 
ENDBRANCH  19  20
BRANCH  11  27
ATOM     27  N   UNL     1       2.547   7.196  -0.640  0.00  0.00    -0.271 NA
ATOM     28  C   UNL     1       3.834   7.487  -1.150  0.00  0.00    +0.072 C 
ATOM     29  C   UNL     1       3.959   8.858  -1.728  0.00  0.00    +0.017 C 
ATOM     30  C   UNL     1       3.397   9.933  -0.858  0.00  0.00    +0.003 C 
ATOM     31  C   UNL     1       2.607   9.487   0.307  0.00  0.00    +0.017 C 
ATOM     32  C   UNL     1       2.029   8.141   0.290  0.00  0.00    +0.072 C 
ENDBRANCH  11  27
BRANCH   1  33
ATOM     33  O   UNL     1       3.173   5.409 -10.109  0.00  0.00    -0.446 OA
BRANCH  33  35
ATOM     34  C   UNL     1       4.231   4.910 -12.309  0.00  0.00    +0.121 C 
ATOM     35  C   UNL     1       4.326   5.284 -10.864  0.00  0.00    +0.318 C 
ATOM     36  O   UNL     1       5.447   5.031 -10.327  0.00  0.00    -0.250 OA
ENDBRANCH  33  35
ENDBRANCH   1  33
BRANCH  10  37
ATOM     37  O   UNL     1       0.207   5.973  -0.287  0.00  0.00    -0.451 OA
BRANCH  37  38
ATOM     38  C   UNL     1      -1.112   6.118  -0.725  0.00  0.00    +0.317 C 
ATOM     39  O   UNL     1      -1.697   5.056  -1.096  0.00  0.00    -0.250 OA
ATOM     40  C   UNL     1      -1.857   7.392  -0.750  0.00  0.00    +0.121 C 
ENDBRANCH  37  38
ENDBRANCH  10  37
TORSDOF 6
ENDMDL
MODEL 6
REMARK VINA RESULT:      -4.8      7.503     11.791
REMARK  Name = 
REMARK  6 active torsions:
REMARK  status: ('A' for Active; 'I' for Inactive)
REMARK    1  A    between atoms: C_2  and  O_4
REMARK    2  A    between atoms: O_4  and  C_5
REMARK    3  A    between atoms: C_6  and  N_7
REMARK    4  A    between atoms: C_21  and  O_22
REMARK    5  A    between atoms: O_22  and  C_23
REMARK    6  A    between atoms: C_26  and  N_27
REMARK                            x       y       z     vdW  Elec       q    Type
REMARK                         _______ _______ _______ _____ _____    ______ ____
ROOT
ATOM      1  C   UNL     1       5.067  14.453   1.945  0.00  0.00    +0.217 C 
ATOM      2  C   UNL     1       4.761  12.881   2.204  0.00  0.00    +0.043 C 
ATOM      3  C   UNL     1       4.232  12.566   0.716  0.00  0.00    +0.009 C 
ATOM      4  C   UNL     1       4.431  10.907   0.852  0.00  0.00    +0.000 C 
ATOM      5  C   UNL     1       2.822  10.919   1.370  0.00  0.00    +0.000 C 
ATOM      6  C   UNL     1       3.304  11.139   2.908  0.00  0.00    +0.000 C 
ATOM      7  C   UNL     1       2.656   9.311   1.344  0.00  0.00    +0.002 C 
ATOM      8  C   UNL     1       1.975   9.352  -0.144  0.00  0.00    +0.004 C 
ATOM      9  C   UNL     1       1.971   7.757  -0.422  0.00  0.00    +0.045 C 
ATOM     10  C   UNL     1       1.578   7.051   0.979  0.00  0.00    +0.183 C 
ATOM     11  C   UNL     1       0.414   8.241   1.372  0.00  0.00    +0.098 C 
ATOM     12  C   UNL     1       3.401   9.479  -0.925  0.00  0.00    +0.000 C 
ATOM     13  C   UNL     1       3.851   8.561   1.358  0.00  0.00    +0.000 C 
ATOM     14  C   UNL     1       1.539   8.993   2.282  0.00  0.00    +0.020 C 
ATOM     15  C   UNL     1       4.005  10.766  -0.690  0.00  0.00    +0.000 C 
ATOM     16  C   UNL     1       5.737  12.905   0.196  0.00  0.00    +0.059 C 
ATOM     17  C   UNL     1       5.927  12.099   2.529  0.00  0.00    +0.004 C 
ATOM     18  C   UNL     1       3.549  12.654   2.985  0.00  0.00    +0.004 C 
ATOM     19  C   UNL     1       4.920  14.327   0.235  0.00  0.00    +0.099 C 
ENDROOT
BRANCH  19  20
ATOM     20  N   UNL     1       6.102  15.212  -0.230  0.00  0.00    +0.300 N 
ATOM     21  C   UNL     1       5.758  14.985  -1.645  0.00  0.00    +0.109 C 
ATOM     22  C   UNL     1       5.959  16.010  -2.610  0.00  0.00    +0.061 C 
ATOM     23  C   UNL     1       6.470  17.305  -2.100  0.00  0.00    +0.012 C 
ATOM     24  C   UNL     1       5.733  17.588  -0.826  0.00  0.00    +0.061 C 
ATOM     25  C   UNL     1       5.884  16.515   0.188  0.00  0.00    +0.109 C 
ATOM     26  C   UNL     1       7.347  14.611  -0.238  0.00  0.00    +0.170 C 
ENDBRANCH  19  20
BRANCH  11  27
ATOM     27  N   UNL     1      -0.131   7.380   2.551  0.00  0.00    -0.271 NA
ATOM     28  C   UNL     1      -0.081   8.129   3.750  0.00  0.00    +0.072 C 
ATOM     29  C   UNL     1      -0.956   9.340   3.743  0.00  0.00    +0.017 C 
ATOM     30  C   UNL     1      -2.340   9.081   3.249  0.00  0.00    +0.003 C 
ATOM     31  C   UNL     1      -2.580   7.761   2.632  0.00  0.00    +0.017 C 
ATOM     32  C   UNL     1      -1.434   7.009   2.114  0.00  0.00    +0.072 C 
ENDBRANCH  11  27
BRANCH   1  33
ATOM     33  O   UNL     1       6.585  14.295   1.984  0.00  0.00    -0.446 OA
BRANCH  33  35
ATOM     34  C   UNL     1       6.466  16.050   3.749  0.00  0.00    +0.121 C 
ATOM     35  C   UNL     1       7.172  14.920   3.070  0.00  0.00    +0.318 C 
ATOM     36  O   UNL     1       8.428  14.903   3.246  0.00  0.00    -0.250 OA
ENDBRANCH  33  35
ENDBRANCH   1  33
BRANCH  10  37
ATOM     37  O   UNL     1       0.542   6.162   0.280  0.00  0.00    -0.451 OA
BRANCH  37  38
ATOM     38  C   UNL     1       1.191   5.484  -0.757  0.00  0.00    +0.317 C 
ATOM     39  O   UNL     1       2.265   4.887  -0.446  0.00  0.00    -0.250 OA
ATOM     40  C   UNL     1       0.697   5.394  -2.145  0.00  0.00    +0.121 C 
ENDBRANCH  37  38
ENDBRANCH  10  37
TORSDOF 6
ENDMDL
