MODEL 1
REMARK VINA RESULT:      -8.7      0.000      0.000
REMARK  Name = 
REMARK  8 active torsions:
REMARK  status: ('A' for Active; 'I' for Inactive)
REMARK    1  A    between atoms: C_2  and  C_3
REMARK    2  A    between atoms: C_3  and  C_4
REMARK    3  A    between atoms: C_12  and  C_13
REMARK    4  A    between atoms: C_15  and  S_16
REMARK    5  A    between atoms: S_16  and  N_19
REMARK    6  A    between atoms: N_22  and  C_23
REMARK    7  A    between atoms: C_29  and  O_30
REMARK    8  A    between atoms: O_30  and  C_31
REMARK                            x       y       z     vdW  Elec       q    Type
REMARK                         _______ _______ _______ _____ _____    ______ ____
ROOT
ATOM      1  C   UNL     1       1.924   6.522  -6.910  0.00  0.00    +0.073 A 
ATOM      2  C   UNL     1       0.683   6.109  -7.382  0.00  0.00    +0.142 A 
ATOM      3  C   UNL     1       0.480   6.293  -8.744  0.00  0.00    +0.038 A 
ATOM      4  C   UNL     1       1.548   6.544  -9.598  0.00  0.00    +0.023 A 
ATOM      5  C   UNL     1       2.857   6.538  -9.131  0.00  0.00    +0.122 A 
ATOM      6  C   UNL     1       2.985   6.774  -7.767  0.00  0.00    +0.026 A 
ENDROOT
BRANCH   1  12
ATOM      7  C   UNL     1       0.301   6.121  -2.320  0.00  0.00    +0.140 A 
ATOM      8  N   UNL     1       1.154   6.351  -3.340  0.00  0.00    -0.209 N 
ATOM      9  C   UNL     1       2.370   6.506  -2.770  0.00  0.00    +0.155 A 
ATOM     10  C   UNL     1       3.447   6.653  -3.612  0.00  0.00    +0.300 A 
ATOM     11  N   UNL     1       3.217   7.011  -4.896  0.00  0.00    -0.186 NA
ATOM     12  C   UNL     1       2.012   6.773  -5.465  0.00  0.00    +0.188 A 
ATOM     13  O   UNL     1       4.603   6.358  -3.187  0.00  0.00    -0.263 OA
ATOM     14  C   UNL     1       2.240   6.606  -1.395  0.00  0.00    +0.083 A 
ATOM     15  C   UNL     1       3.394   6.374  -0.475  0.00  0.00    +0.054 C 
ATOM     16  N   UNL     1       0.985   6.416  -4.658  0.00  0.00    -0.144 NA
ATOM     17  N   UNL     1       0.926   6.391  -1.154  0.00  0.00    -0.233 NA
BRANCH   7  18
ATOM     18  C   UNL     1      -1.084   5.568  -2.407  0.00  0.00    +0.066 C 
BRANCH  18  20
ATOM     19  C   UNL     1      -3.422   6.378  -2.584  0.00  0.00    +0.000 C 
ATOM     20  C   UNL     1      -2.059   6.654  -1.970  0.00  0.00    +0.008 C 
ENDBRANCH  18  20
ENDBRANCH   7  18
ENDBRANCH   1  12
BRANCH   5  21
ATOM     21  S   UNL     1       4.157   5.808 -10.066  0.00  0.00    +0.063 S 
ATOM     22  O   UNL     1       3.639   5.628 -11.467  0.00  0.00    -0.153 OA
ATOM     23  O   UNL     1       4.475   4.426  -9.541  0.00  0.00    -0.153 OA
BRANCH  21  24
ATOM     24  N   UNL     1       5.594   6.730 -10.006  0.00  0.00    -0.153 NA
ATOM     25  C   UNL     1       5.694   7.731 -11.029  0.00  0.00    +0.113 C 
ATOM     26  C   UNL     1       6.371   7.256 -12.283  0.00  0.00    +0.092 C 
ATOM     27  N   UNL     1       7.596   6.513 -12.001  0.00  0.00    -0.270 NA
ATOM     28  C   UNL     1       7.181   5.365 -11.196  0.00  0.00    +0.092 C 
ATOM     29  C   UNL     1       6.778   5.930  -9.845  0.00  0.00    +0.113 C 
BRANCH  27  30
ATOM     30  C   UNL     1       8.075   5.966 -13.264  0.00  0.00    +0.072 C 
ATOM     31  C   UNL     1       6.928   5.649 -14.185  0.00  0.00    +0.019 C 
ENDBRANCH  27  30
ENDBRANCH  21  24
ENDBRANCH   5  21
BRANCH   2  32
ATOM     32  O   UNL     1      -0.019   5.143  -6.655  0.00  0.00    -0.475 OA
BRANCH  32  33
ATOM     33  C   UNL     1      -1.424   4.966  -6.802  0.00  0.00    +0.206 C 
ATOM     34  C   UNL     1      -2.215   6.064  -6.152  0.00  0.00    +0.051 C 
ENDBRANCH  32  33
ENDBRANCH   2  32
TORSDOF 8
ENDMDL
MODEL 2
REMARK VINA RESULT:      -8.7      2.692      9.783
REMARK  Name = 
REMARK  8 active torsions:
REMARK  status: ('A' for Active; 'I' for Inactive)
REMARK    1  A    between atoms: C_2  and  C_3
REMARK    2  A    between atoms: C_3  and  C_4
REMARK    3  A    between atoms: C_12  and  C_13
REMARK    4  A    between atoms: C_15  and  S_16
REMARK    5  A    between atoms: S_16  and  N_19
REMARK    6  A    between atoms: N_22  and  C_23
REMARK    7  A    between atoms: C_29  and  O_30
REMARK    8  A    between atoms: O_30  and  C_31
REMARK                            x       y       z     vdW  Elec       q    Type
REMARK                         _______ _______ _______ _____ _____    ______ ____
ROOT
ATOM      1  C   UNL     1       2.682   6.459  -8.295  0.00  0.00    +0.073 A 
ATOM      2  C   UNL     1       3.947   6.048  -7.891  0.00  0.00    +0.142 A 
ATOM      3  C   UNL     1       4.279   6.367  -6.581  0.00  0.00    +0.038 A 
ATOM      4  C   UNL     1       3.302   6.751  -5.669  0.00  0.00    +0.023 A 
ATOM      5  C   UNL     1       1.956   6.749  -6.017  0.00  0.00    +0.122 A 
ATOM      6  C   UNL     1       1.711   6.843  -7.382  0.00  0.00    +0.026 A 
ENDROOT
BRANCH   1  12
ATOM      7  C   UNL     1       4.040   5.811 -12.943  0.00  0.00    +0.140 A 
ATOM      8  N   UNL     1       3.233   6.037 -11.885  0.00  0.00    -0.209 N 
ATOM      9  C   UNL     1       1.973   5.994 -12.372  0.00  0.00    +0.155 A 
ATOM     10  C   UNL     1       0.942   6.096 -11.467  0.00  0.00    +0.300 A 
ATOM     11  N   UNL     1       1.210   6.599 -10.241  0.00  0.00    -0.186 NA
ATOM     12  C   UNL     1       2.470   6.558  -9.746  0.00  0.00    +0.188 A 
ATOM     13  O   UNL     1      -0.194   5.630 -11.776  0.00  0.00    -0.263 OA
ATOM     14  C   UNL     1       2.000   5.977 -13.757  0.00  0.00    +0.083 A 
ATOM     15  C   UNL     1       0.826   5.526 -14.563  0.00  0.00    +0.054 C 
ATOM     16  N   UNL     1       3.478   6.247 -10.594  0.00  0.00    -0.144 NA
ATOM     17  N   UNL     1       3.312   5.893 -14.077  0.00  0.00    -0.233 NA
BRANCH   7  18
ATOM     18  C   UNL     1       5.484   5.433 -12.913  0.00  0.00    +0.066 C 
BRANCH  18  20
ATOM     19  C   UNL     1       6.497   7.607 -12.281  0.00  0.00    +0.000 C 
ATOM     20  C   UNL     1       6.297   6.618 -13.418  0.00  0.00    +0.008 C 
ENDBRANCH  18  20
ENDBRANCH   7  18
ENDBRANCH   1  12
BRANCH   5  21
ATOM     21  S   UNL     1       0.725   6.176  -4.898  0.00  0.00    +0.063 S 
ATOM     22  O   UNL     1       1.105   6.683  -3.533  0.00  0.00    -0.153 OA
ATOM     23  O   UNL     1       0.742   4.666  -4.819  0.00  0.00    -0.153 OA
BRANCH  21  24
ATOM     24  N   UNL     1      -0.847   6.654  -5.365  0.00  0.00    -0.153 NA
ATOM     25  C   UNL     1      -1.269   7.910  -4.815  0.00  0.00    +0.113 C 
ATOM     26  C   UNL     1      -1.988   7.791  -3.501  0.00  0.00    +0.092 C 
ATOM     27  N   UNL     1      -2.998   6.736  -3.519  0.00  0.00    -0.270 NA
ATOM     28  C   UNL     1      -2.268   5.501  -3.800  0.00  0.00    +0.092 C 
ATOM     29  C   UNL     1      -1.821   5.603  -5.248  0.00  0.00    +0.113 C 
BRANCH  27  30
ATOM     30  C   UNL     1      -3.512   6.601  -2.163  0.00  0.00    +0.072 C 
ATOM     31  C   UNL     1      -2.419   6.807  -1.149  0.00  0.00    +0.019 C 
ENDBRANCH  27  30
ENDBRANCH  21  24
ENDBRANCH   5  21
BRANCH   2  32
ATOM     32  O   UNL     1       4.549   4.982  -8.567  0.00  0.00    -0.475 OA
BRANCH  32  33
ATOM     33  C   UNL     1       5.949   4.737  -8.487  0.00  0.00    +0.206 C 
ATOM     34  C   UNL     1       6.753   5.714  -9.294  0.00  0.00    +0.051 C 
ENDBRANCH  32  33
ENDBRANCH   2  32
TORSDOF 8
ENDMDL
MODEL 3
REMARK VINA RESULT:      -8.6      2.781      8.977
REMARK  Name = 
REMARK  8 active torsions:
REMARK  status: ('A' for Active; 'I' for Inactive)
REMARK    1  A    between atoms: C_2  and  C_3
REMARK    2  A    between atoms: C_3  and  C_4
REMARK    3  A    between atoms: C_12  and  C_13
REMARK    4  A    between atoms: C_15  and  S_16
REMARK    5  A    between atoms: S_16  and  N_19
REMARK    6  A    between atoms: N_22  and  C_23
REMARK    7  A    between atoms: C_29  and  O_30
REMARK    8  A    between atoms: O_30  and  C_31
REMARK                            x       y       z     vdW  Elec       q    Type
REMARK                         _______ _______ _______ _____ _____    ______ ____
ROOT
ATOM      1  C   UNL     1       3.732   4.933  -7.708  0.00  0.00    +0.073 A 
ATOM      2  C   UNL     1       2.493   4.304  -7.744  0.00  0.00    +0.142 A 
ATOM      3  C   UNL     1       1.992   3.918  -6.507  0.00  0.00    +0.038 A 
ATOM      4  C   UNL     1       2.527   4.427  -5.329  0.00  0.00    +0.023 A 
ATOM      5  C   UNL     1       3.521   5.398  -5.354  0.00  0.00    +0.122 A 
ATOM      6  C   UNL     1       4.262   5.438  -6.530  0.00  0.00    +0.026 A 
ENDROOT
BRANCH   1  12
ATOM      7  C   UNL     1       4.159   5.676 -12.518  0.00  0.00    +0.140 A 
ATOM      8  N   UNL     1       4.528   5.487 -11.234  0.00  0.00    -0.209 N 
ATOM      9  C   UNL     1       5.863   5.703 -11.202  0.00  0.00    +0.155 A 
ATOM     10  C   UNL     1       6.478   5.672  -9.973  0.00  0.00    +0.300 A 
ATOM     11  N   UNL     1       5.834   5.074  -8.945  0.00  0.00    -0.186 NA
ATOM     12  C   UNL     1       4.487   4.940  -8.968  0.00  0.00    +0.188 A 
ATOM     13  O   UNL     1       7.576   6.284  -9.820  0.00  0.00    -0.263 OA
ATOM     14  C   UNL     1       6.359   5.795 -12.491  0.00  0.00    +0.083 A 
ATOM     15  C   UNL     1       7.681   6.424 -12.785  0.00  0.00    +0.054 C 
ATOM     16  N   UNL     1       3.843   5.178 -10.135  0.00  0.00    -0.144 NA
ATOM     17  N   UNL     1       5.266   5.743 -13.288  0.00  0.00    -0.233 NA
BRANCH   7  18
ATOM     18  C   UNL     1       2.776   5.881 -13.039  0.00  0.00    +0.066 C 
BRANCH  18  20
ATOM     19  C   UNL     1       0.979   4.476 -14.017  0.00  0.00    +0.000 C 
ATOM     20  C   UNL     1       2.472   4.767 -14.033  0.00  0.00    +0.008 C 
ENDBRANCH  18  20
ENDBRANCH   7  18
ENDBRANCH   1  12
BRANCH   5  21
ATOM     21  S   UNL     1       3.503   6.753  -4.232  0.00  0.00    +0.063 S 
ATOM     22  O   UNL     1       2.081   7.242  -4.159  0.00  0.00    -0.153 OA
ATOM     23  O   UNL     1       4.327   7.900  -4.772  0.00  0.00    -0.153 OA
BRANCH  21  24
ATOM     24  N   UNL     1       4.136   6.335  -2.701  0.00  0.00    -0.153 NA
ATOM     25  C   UNL     1       3.216   5.627  -1.857  0.00  0.00    +0.113 C 
ATOM     26  C   UNL     1       2.391   6.518  -0.972  0.00  0.00    +0.092 C 
ATOM     27  N   UNL     1       3.199   7.541  -0.313  0.00  0.00    -0.270 NA
ATOM     28  C   UNL     1       3.792   8.327  -1.393  0.00  0.00    +0.092 C 
ATOM     29  C   UNL     1       4.819   7.420  -2.050  0.00  0.00    +0.113 C 
BRANCH  27  30
ATOM     30  C   UNL     1       2.285   8.437   0.382  0.00  0.00    +0.072 C 
ATOM     31  C   UNL     1       2.764   9.861   0.308  0.00  0.00    +0.019 C 
ENDBRANCH  27  30
ENDBRANCH  21  24
ENDBRANCH   5  21
BRANCH   2  32
ATOM     32  O   UNL     1       1.655   4.543  -8.838  0.00  0.00    -0.475 OA
BRANCH  32  33
ATOM     33  C   UNL     1       0.558   5.447  -8.761  0.00  0.00    +0.206 C 
ATOM     34  C   UNL     1       0.201   6.035 -10.095  0.00  0.00    +0.051 C 
ENDBRANCH  32  33
ENDBRANCH   2  32
TORSDOF 8
ENDMDL
MODEL 4
REMARK VINA RESULT:      -8.6      2.906      8.737
REMARK  Name = 
REMARK  8 active torsions:
REMARK  status: ('A' for Active; 'I' for Inactive)
REMARK    1  A    between atoms: C_2  and  C_3
REMARK    2  A    between atoms: C_3  and  C_4
REMARK    3  A    between atoms: C_12  and  C_13
REMARK    4  A    between atoms: C_15  and  S_16
REMARK    5  A    between atoms: S_16  and  N_19
REMARK    6  A    between atoms: N_22  and  C_23
REMARK    7  A    between atoms: C_29  and  O_30
REMARK    8  A    between atoms: O_30  and  C_31
REMARK                            x       y       z     vdW  Elec       q    Type
REMARK                         _______ _______ _______ _____ _____    ______ ____
ROOT
ATOM      1  C   UNL     1       2.180   6.098  -9.677  0.00  0.00    +0.073 A 
ATOM      2  C   UNL     1       0.833   6.285  -9.965  0.00  0.00    +0.142 A 
ATOM      3  C   UNL     1      -0.047   5.606  -9.132  0.00  0.00    +0.038 A 
ATOM      4  C   UNL     1       0.382   5.075  -7.921  0.00  0.00    +0.023 A 
ATOM      5  C   UNL     1       1.681   5.277  -7.469  0.00  0.00    +0.122 A 
ATOM      6  C   UNL     1       2.603   5.566  -8.468  0.00  0.00    +0.026 A 
ENDROOT
BRANCH   1  12
ATOM      7  C   UNL     1       6.615   7.178 -11.419  0.00  0.00    +0.140 A 
ATOM      8  N   UNL     1       5.329   6.771 -11.411  0.00  0.00    -0.209 N 
ATOM      9  C   UNL     1       5.100   6.260 -12.642  0.00  0.00    +0.155 A 
ATOM     10  C   UNL     1       3.875   5.677 -12.866  0.00  0.00    +0.300 A 
ATOM     11  N   UNL     1       2.860   5.966 -12.020  0.00  0.00    -0.186 NA
ATOM     12  C   UNL     1       3.120   6.402 -10.766  0.00  0.00    +0.188 A 
ATOM     13  O   UNL     1       3.764   4.820 -13.792  0.00  0.00    -0.263 OA
ATOM     14  C   UNL     1       6.159   6.560 -13.483  0.00  0.00    +0.083 A 
ATOM     15  C   UNL     1       6.395   5.807 -14.752  0.00  0.00    +0.054 C 
ATOM     16  N   UNL     1       4.386   6.783 -10.472  0.00  0.00    -0.144 NA
ATOM     17  N   UNL     1       7.074   7.161 -12.688  0.00  0.00    -0.233 NA
BRANCH   7  18
ATOM     18  C   UNL     1       7.465   7.510 -10.237  0.00  0.00    +0.066 C 
BRANCH  18  20
ATOM     19  C   UNL     1       8.109   5.116 -10.135  0.00  0.00    +0.000 C 
ATOM     20  C   UNL     1       7.537   6.280  -9.341  0.00  0.00    +0.008 C 
ENDBRANCH  18  20
ENDBRANCH   7  18
ENDBRANCH   1  12
BRANCH   5  21
ATOM     21  S   UNL     1       2.014   5.631  -5.778  0.00  0.00    +0.063 S 
ATOM     22  O   UNL     1       1.296   4.589  -4.963  0.00  0.00    -0.153 OA
ATOM     23  O   UNL     1       1.422   6.967  -5.390  0.00  0.00    -0.153 OA
BRANCH  21  24
ATOM     24  N   UNL     1       3.689   5.690  -5.447  0.00  0.00    -0.153 NA
ATOM     25  C   UNL     1       4.129   4.740  -4.466  0.00  0.00    +0.113 C 
ATOM     26  C   UNL     1       4.106   5.262  -3.057  0.00  0.00    +0.092 C 
ATOM     27  N   UNL     1       4.692   6.596  -2.954  0.00  0.00    -0.270 NA
ATOM     28  C   UNL     1       3.872   7.450  -3.813  0.00  0.00    +0.092 C 
ATOM     29  C   UNL     1       4.183   7.024  -5.238  0.00  0.00    +0.113 C 
BRANCH  27  30
ATOM     30  C   UNL     1       4.471   7.065  -1.593  0.00  0.00    +0.072 C 
ATOM     31  C   UNL     1       3.805   8.413  -1.588  0.00  0.00    +0.019 C 
ENDBRANCH  27  30
ENDBRANCH  21  24
ENDBRANCH   5  21
BRANCH   2  32
ATOM     32  O   UNL     1       0.454   7.439 -10.658  0.00  0.00    -0.475 OA
BRANCH  32  33
ATOM     33  C   UNL     1      -0.508   7.403 -11.707  0.00  0.00    +0.206 C 
ATOM     34  C   UNL     1       0.085   7.733 -13.045  0.00  0.00    +0.051 C 
ENDBRANCH  32  33
ENDBRANCH   2  32
TORSDOF 8
ENDMDL
MODEL 5
REMARK VINA RESULT:      -8.6      2.701      8.721
REMARK  Name = 
REMARK  8 active torsions:
REMARK  status: ('A' for Active; 'I' for Inactive)
REMARK    1  A    between atoms: C_2  and  C_3
REMARK    2  A    between atoms: C_3  and  C_4
REMARK    3  A    between atoms: C_12  and  C_13
REMARK    4  A    between atoms: C_15  and  S_16
REMARK    5  A    between atoms: S_16  and  N_19
REMARK    6  A    between atoms: N_22  and  C_23
REMARK    7  A    between atoms: C_29  and  O_30
REMARK    8  A    between atoms: O_30  and  C_31
REMARK                            x       y       z     vdW  Elec       q    Type
REMARK                         _______ _______ _______ _____ _____    ______ ____
ROOT
ATOM      1  C   UNL     1       2.425   5.312  -8.698  0.00  0.00    +0.073 A 
ATOM      2  C   UNL     1       1.219   5.712  -9.261  0.00  0.00    +0.142 A 
ATOM      3  C   UNL     1       0.098   5.483  -8.474  0.00  0.00    +0.038 A 
ATOM      4  C   UNL     1       0.221   5.200  -7.119  0.00  0.00    +0.023 A 
ATOM      5  C   UNL     1       1.462   5.219  -6.493  0.00  0.00    +0.122 A 
ATOM      6  C   UNL     1       2.543   5.029  -7.345  0.00  0.00    +0.026 A 
ENDROOT
BRANCH   1  12
ATOM      7  C   UNL     1       4.401   5.311 -13.166  0.00  0.00    +0.140 A 
ATOM      8  N   UNL     1       4.331   5.308 -11.819  0.00  0.00    -0.209 N 
ATOM      9  C   UNL     1       5.600   5.491 -11.387  0.00  0.00    +0.155 A 
ATOM     10  C   UNL     1       5.792   5.629 -10.033  0.00  0.00    +0.300 A 
ATOM     11  N   UNL     1       4.815   5.209  -9.197  0.00  0.00    -0.186 NA
ATOM     12  C   UNL     1       3.538   5.109  -9.636  0.00  0.00    +0.188 A 
ATOM     13  O   UNL     1       6.828   6.228  -9.618  0.00  0.00    -0.263 OA
ATOM     14  C   UNL     1       6.482   5.374 -12.448  0.00  0.00    +0.083 A 
ATOM     15  C   UNL     1       7.873   5.917 -12.380  0.00  0.00    +0.054 C 
ATOM     16  N   UNL     1       3.314   5.186 -10.969  0.00  0.00    -0.144 NA
ATOM     17  N   UNL     1       5.696   5.232 -13.540  0.00  0.00    -0.233 NA
BRANCH   7  18
ATOM     18  C   UNL     1       3.271   5.472 -14.129  0.00  0.00    +0.066 C 
BRANCH  18  20
ATOM     19  C   UNL     1       1.047   4.377 -14.031  0.00  0.00    +0.000 C 
ATOM     20  C   UNL     1       2.536   4.141 -14.227  0.00  0.00    +0.008 C 
ENDBRANCH  18  20
ENDBRANCH   7  18
ENDBRANCH   1  12
BRANCH   5  21
ATOM     21  S   UNL     1       1.665   5.914  -4.889  0.00  0.00    +0.063 S 
ATOM     22  O   UNL     1       1.034   4.956  -3.914  0.00  0.00    -0.153 OA
ATOM     23  O   UNL     1       0.900   7.213  -4.774  0.00  0.00    -0.153 OA
BRANCH  21  24
ATOM     24  N   UNL     1       3.302   6.241  -4.527  0.00  0.00    -0.153 NA
ATOM     25  C   UNL     1       4.030   5.113  -4.022  0.00  0.00    +0.113 C 
ATOM     26  C   UNL     1       4.005   4.991  -2.524  0.00  0.00    +0.092 C 
ATOM     27  N   UNL     1       4.271   6.265  -1.863  0.00  0.00    -0.270 NA
ATOM     28  C   UNL     1       3.208   7.166  -2.306  0.00  0.00    +0.092 C 
ATOM     29  C   UNL     1       3.489   7.450  -3.772  0.00  0.00    +0.113 C 
BRANCH  27  30
ATOM     30  C   UNL     1       4.063   6.068  -0.435  0.00  0.00    +0.072 C 
ATOM     31  C   UNL     1       4.891   7.031   0.370  0.00  0.00    +0.019 C 
ENDBRANCH  27  30
ENDBRANCH  21  24
ENDBRANCH   5  21
BRANCH   2  32
ATOM     32  O   UNL     1       1.240   6.703 -10.247  0.00  0.00    -0.475 OA
BRANCH  32  33
ATOM     33  C   UNL     1       0.082   7.031 -11.007  0.00  0.00    +0.206 C 
ATOM     34  C   UNL     1       0.411   7.437 -12.414  0.00  0.00    +0.051 C 
ENDBRANCH  32  33
ENDBRANCH   2  32
TORSDOF 8
ENDMDL
MODEL 6
REMARK VINA RESULT:      -8.5      2.505      4.746
REMARK  Name = 
REMARK  8 active torsions:
REMARK  status: ('A' for Active; 'I' for Inactive)
REMARK    1  A    between atoms: C_2  and  C_3
REMARK    2  A    between atoms: C_3  and  C_4
REMARK    3  A    between atoms: C_12  and  C_13
REMARK    4  A    between atoms: C_15  and  S_16
REMARK    5  A    between atoms: S_16  and  N_19
REMARK    6  A    between atoms: N_22  and  C_23
REMARK    7  A    between atoms: C_29  and  O_30
REMARK    8  A    between atoms: O_30  and  C_31
REMARK                            x       y       z     vdW  Elec       q    Type
REMARK                         _______ _______ _______ _____ _____    ______ ____
ROOT
ATOM      1  C   UNL     1       2.419   5.527  -4.659  0.00  0.00    +0.073 A 
ATOM      2  C   UNL     1       3.383   6.273  -3.990  0.00  0.00    +0.142 A 
ATOM      3  C   UNL     1       4.692   6.035  -4.387  0.00  0.00    +0.038 A 
ATOM      4  C   UNL     1       4.969   5.369  -5.576  0.00  0.00    +0.023 A 
ATOM      5  C   UNL     1       3.949   4.995  -6.442  0.00  0.00    +0.122 A 
ATOM      6  C   UNL     1       2.701   4.863  -5.844  0.00  0.00    +0.026 A 
ENDROOT
BRANCH   1  12
ATOM      7  C   UNL     1      -0.626   6.270  -0.912  0.00  0.00    +0.140 A 
ATOM      8  N   UNL     1      -0.215   5.978  -2.163  0.00  0.00    -0.209 N 
ATOM      9  C   UNL     1      -1.341   5.905  -2.909  0.00  0.00    +0.155 A 
ATOM     10  C   UNL     1      -1.190   5.716  -4.263  0.00  0.00    +0.300 A 
ATOM     11  N   UNL     1      -0.007   5.245  -4.720  0.00  0.00    -0.186 NA
ATOM     12  C   UNL     1       1.120   5.402  -3.985  0.00  0.00    +0.188 A 
ATOM     13  O   UNL     1      -2.122   6.077  -5.041  0.00  0.00    -0.263 OA
ATOM     14  C   UNL     1      -2.455   5.917  -2.087  0.00  0.00    +0.083 A 
ATOM     15  C   UNL     1      -3.814   6.257  -2.607  0.00  0.00    +0.054 C 
ATOM     16  N   UNL     1       0.991   5.797  -2.697  0.00  0.00    -0.144 NA
ATOM     17  N   UNL     1      -1.965   6.116  -0.842  0.00  0.00    -0.233 NA
BRANCH   7  18
ATOM     18  C   UNL     1       0.208   6.775   0.218  0.00  0.00    +0.066 C 
BRANCH  18  20
ATOM     19  C   UNL     1       0.593   9.098   1.002  0.00  0.00    +0.000 C 
ATOM     20  C   UNL     1      -0.459   8.022   0.783  0.00  0.00    +0.008 C 
ENDBRANCH  18  20
ENDBRANCH   7  18
ENDBRANCH   1  12
BRANCH   5  21
ATOM     21  S   UNL     1       4.120   5.169  -8.185  0.00  0.00    +0.063 S 
ATOM     22  O   UNL     1       3.570   3.913  -8.805  0.00  0.00    -0.153 OA
ATOM     23  O   UNL     1       5.581   5.236  -8.569  0.00  0.00    -0.153 OA
BRANCH  21  24
ATOM     24  N   UNL     1       3.363   6.583  -8.772  0.00  0.00    -0.153 NA
ATOM     25  C   UNL     1       1.940   6.608  -8.590  0.00  0.00    +0.113 C 
ATOM     26  C   UNL     1       1.167   6.039  -9.745  0.00  0.00    +0.092 C 
ATOM     27  N   UNL     1       1.650   6.536 -11.030  0.00  0.00    -0.270 NA
ATOM     28  C   UNL     1       3.047   6.114 -11.113  0.00  0.00    +0.092 C 
ATOM     29  C   UNL     1       3.795   6.955 -10.092  0.00  0.00    +0.113 C 
BRANCH  27  30
ATOM     30  C   UNL     1       0.946   5.803 -12.074  0.00  0.00    +0.072 C 
ATOM     31  C   UNL     1       0.068   4.733 -11.484  0.00  0.00    +0.019 C 
ENDBRANCH  27  30
ENDBRANCH  21  24
ENDBRANCH   5  21
BRANCH   2  32
ATOM     32  O   UNL     1       2.998   7.480  -3.398  0.00  0.00    -0.475 OA
BRANCH  32  33
ATOM     33  C   UNL     1       3.852   8.182  -2.501  0.00  0.00    +0.206 C 
ATOM     34  C   UNL     1       3.557   7.874  -1.063  0.00  0.00    +0.051 C 
ENDBRANCH  32  33
ENDBRANCH   2  32
TORSDOF 8
ENDMDL
MODEL 7
REMARK VINA RESULT:      -8.4      1.933      4.028
REMARK  Name = 
REMARK  8 active torsions:
REMARK  status: ('A' for Active; 'I' for Inactive)
REMARK    1  A    between atoms: C_2  and  C_3
REMARK    2  A    between atoms: C_3  and  C_4
REMARK    3  A    between atoms: C_12  and  C_13
REMARK    4  A    between atoms: C_15  and  S_16
REMARK    5  A    between atoms: S_16  and  N_19
REMARK    6  A    between atoms: N_22  and  C_23
REMARK    7  A    between atoms: C_29  and  O_30
REMARK    8  A    between atoms: O_30  and  C_31
REMARK                            x       y       z     vdW  Elec       q    Type
REMARK                         _______ _______ _______ _____ _____    ______ ____
ROOT
ATOM      1  C   UNL     1       2.981   5.275  -7.055  0.00  0.00    +0.073 A 
ATOM      2  C   UNL     1       4.133   5.702  -6.405  0.00  0.00    +0.142 A 
ATOM      3  C   UNL     1       5.316   5.482  -7.098  0.00  0.00    +0.038 A 
ATOM      4  C   UNL     1       5.304   5.181  -8.455  0.00  0.00    +0.023 A 
ATOM      5  C   UNL     1       4.116   5.171  -9.176  0.00  0.00    +0.122 A 
ATOM      6  C   UNL     1       2.974   4.973  -8.408  0.00  0.00    +0.026 A 
ENDROOT
BRANCH   1  12
ATOM      7  C   UNL     1       0.565   5.578  -2.819  0.00  0.00    +0.140 A 
ATOM      8  N   UNL     1       0.773   5.428  -4.144  0.00  0.00    -0.209 N 
ATOM      9  C   UNL     1      -0.456   5.426  -4.708  0.00  0.00    +0.155 A 
ATOM     10  C   UNL     1      -0.520   5.387  -6.081  0.00  0.00    +0.300 A 
ATOM     11  N   UNL     1       0.573   4.980  -6.766  0.00  0.00    -0.186 NA
ATOM     12  C   UNL     1       1.801   5.065  -6.204  0.00  0.00    +0.188 A 
ATOM     13  O   UNL     1      -1.559   5.822  -6.660  0.00  0.00    -0.263 OA
ATOM     14  C   UNL     1      -1.428   5.339  -3.726  0.00  0.00    +0.083 A 
ATOM     15  C   UNL     1      -2.849   5.722  -3.987  0.00  0.00    +0.054 C 
ATOM     16  N   UNL     1       1.879   5.317  -4.876  0.00  0.00    -0.144 NA
ATOM     17  N   UNL     1      -0.748   5.406  -2.558  0.00  0.00    -0.233 NA
BRANCH   7  18
ATOM     18  C   UNL     1       1.570   5.965  -1.785  0.00  0.00    +0.066 C 
BRANCH  18  20
ATOM     19  C   UNL     1       3.629   4.617  -1.470  0.00  0.00    +0.000 C 
ATOM     20  C   UNL     1       2.139   4.692  -1.173  0.00  0.00    +0.008 C 
ENDBRANCH  18  20
ENDBRANCH   7  18
ENDBRANCH   1  12
BRANCH   5  21
ATOM     21  S   UNL     1       4.028   5.843 -10.801  0.00  0.00    +0.063 S 
ATOM     22  O   UNL     1       4.385   7.301 -10.690  0.00  0.00    -0.153 OA
ATOM     23  O   UNL     1       2.610   5.784 -11.322  0.00  0.00    -0.153 OA
BRANCH  21  24
ATOM     24  N   UNL     1       5.023   5.001 -11.904  0.00  0.00    -0.153 NA
ATOM     25  C   UNL     1       6.390   5.435 -11.915  0.00  0.00    +0.113 C 
ATOM     26  C   UNL     1       6.677   6.527 -12.906  0.00  0.00    +0.092 C 
ATOM     27  N   UNL     1       6.090   6.252 -14.214  0.00  0.00    -0.270 NA
ATOM     28  C   UNL     1       4.649   6.156 -13.984  0.00  0.00    +0.092 C 
ATOM     29  C   UNL     1       4.438   4.865 -13.211  0.00  0.00    +0.113 C 
BRANCH  27  30
ATOM     30  C   UNL     1       6.287   7.436 -15.039  0.00  0.00    +0.072 C 
ATOM     31  C   UNL     1       6.540   7.059 -16.473  0.00  0.00    +0.019 C 
ENDBRANCH  27  30
ENDBRANCH  21  24
ENDBRANCH   5  21
BRANCH   2  32
ATOM     32  O   UNL     1       4.019   6.704  -5.436  0.00  0.00    -0.475 OA
BRANCH  32  33
ATOM     33  C   UNL     1       5.106   7.054  -4.586  0.00  0.00    +0.206 C 
ATOM     34  C   UNL     1       4.690   7.954  -3.459  0.00  0.00    +0.051 C 
ENDBRANCH  32  33
ENDBRANCH   2  32
TORSDOF 8
ENDMDL
MODEL 8
REMARK VINA RESULT:      -8.4      1.598      2.670
REMARK  Name = 
REMARK  8 active torsions:
REMARK  status: ('A' for Active; 'I' for Inactive)
REMARK    1  A    between atoms: C_2  and  C_3
REMARK    2  A    between atoms: C_3  and  C_4
REMARK    3  A    between atoms: C_12  and  C_13
REMARK    4  A    between atoms: C_15  and  S_16
REMARK    5  A    between atoms: S_16  and  N_19
REMARK    6  A    between atoms: N_22  and  C_23
REMARK    7  A    between atoms: C_29  and  O_30
REMARK    8  A    between atoms: O_30  and  C_31
REMARK                            x       y       z     vdW  Elec       q    Type
REMARK                         _______ _______ _______ _____ _____    ______ ____
ROOT
ATOM      1  C   UNL     1       2.264   6.028  -6.452  0.00  0.00    +0.073 A 
ATOM      2  C   UNL     1       1.114   6.081  -7.231  0.00  0.00    +0.142 A 
ATOM      3  C   UNL     1       1.274   6.671  -8.478  0.00  0.00    +0.038 A 
ATOM      4  C   UNL     1       2.540   6.869  -9.018  0.00  0.00    +0.023 A 
ATOM      5  C   UNL     1       3.677   6.410  -8.365  0.00  0.00    +0.122 A 
ATOM      6  C   UNL     1       3.525   6.228  -6.995  0.00  0.00    +0.026 A 
ENDROOT
BRANCH   1  12
ATOM      7  C   UNL     1       2.870   7.318  -1.779  0.00  0.00    +0.140 A 
ATOM      8  N   UNL     1       2.343   6.705  -2.860  0.00  0.00    -0.209 N 
ATOM      9  C   UNL     1       1.210   6.108  -2.425  0.00  0.00    +0.155 A 
ATOM     10  C   UNL     1       0.420   5.491  -3.365  0.00  0.00    +0.300 A 
ATOM     11  N   UNL     1       0.968   5.181  -4.563  0.00  0.00    -0.186 NA
ATOM     12  C   UNL     1       2.057   5.849  -5.009  0.00  0.00    +0.188 A 
ATOM     13  O   UNL     1      -0.810   5.321  -3.118  0.00  0.00    -0.263 OA
ATOM     14  C   UNL     1       1.154   6.150  -1.042  0.00  0.00    +0.083 A 
ATOM     15  C   UNL     1      -0.127   5.953  -0.298  0.00  0.00    +0.054 C 
ATOM     16  N   UNL     1       2.726   6.635  -4.132  0.00  0.00    -0.144 NA
ATOM     17  N   UNL     1       2.226   6.889  -0.673  0.00  0.00    -0.233 NA
BRANCH   7  18
ATOM     18  C   UNL     1       3.925   8.374  -1.765  0.00  0.00    +0.066 C 
BRANCH  18  20
ATOM     19  C   UNL     1       3.405  10.474  -0.551  0.00  0.00    +0.000 C 
ATOM     20  C   UNL     1       3.907   9.047  -0.398  0.00  0.00    +0.008 C 
ENDBRANCH  18  20
ENDBRANCH   7  18
ENDBRANCH   1  12
BRANCH   5  21
ATOM     21  S   UNL     1       4.999   5.659  -9.252  0.00  0.00    +0.063 S 
ATOM     22  O   UNL     1       4.377   4.817 -10.333  0.00  0.00    -0.153 OA
ATOM     23  O   UNL     1       5.768   4.713  -8.356  0.00  0.00    -0.153 OA
BRANCH  21  24
ATOM     24  N   UNL     1       6.104   6.808  -9.864  0.00  0.00    -0.153 NA
ATOM     25  C   UNL     1       5.659   7.479 -11.051  0.00  0.00    +0.113 C 
ATOM     26  C   UNL     1       6.073   6.802 -12.326  0.00  0.00    +0.092 C 
ATOM     27  N   UNL     1       7.479   6.409 -12.311  0.00  0.00    -0.270 NA
ATOM     28  C   UNL     1       7.613   5.480 -11.190  0.00  0.00    +0.092 C 
ATOM     29  C   UNL     1       7.455   6.320  -9.934  0.00  0.00    +0.113 C 
BRANCH  27  30
ATOM     30  C   UNL     1       7.726   5.626 -13.514  0.00  0.00    +0.072 C 
ATOM     31  C   UNL     1       6.737   5.969 -14.594  0.00  0.00    +0.019 C 
ENDBRANCH  27  30
ENDBRANCH  21  24
ENDBRANCH   5  21
BRANCH   2  32
ATOM     32  O   UNL     1       0.092   5.163  -6.974  0.00  0.00    -0.475 OA
BRANCH  32  33
ATOM     33  C   UNL     1      -1.236   5.364  -7.446  0.00  0.00    +0.206 C 
ATOM     34  C   UNL     1      -2.227   5.521  -6.330  0.00  0.00    +0.051 C 
ENDBRANCH  32  33
ENDBRANCH   2  32
TORSDOF 8
ENDMDL
MODEL 9
REMARK VINA RESULT:      -8.3      2.463      8.981
REMARK  Name = 
REMARK  8 active torsions:
REMARK  status: ('A' for Active; 'I' for Inactive)
REMARK    1  A    between atoms: C_2  and  C_3
REMARK    2  A    between atoms: C_3  and  C_4
REMARK    3  A    between atoms: C_12  and  C_13
REMARK    4  A    between atoms: C_15  and  S_16
REMARK    5  A    between atoms: S_16  and  N_19
REMARK    6  A    between atoms: N_22  and  C_23
REMARK    7  A    between atoms: C_29  and  O_30
REMARK    8  A    between atoms: O_30  and  C_31
REMARK                            x       y       z     vdW  Elec       q    Type
REMARK                         _______ _______ _______ _____ _____    ______ ____
ROOT
ATOM      1  C   UNL     1       2.750   5.494 -10.016  0.00  0.00    +0.073 A 
ATOM      2  C   UNL     1       1.671   5.802 -10.836  0.00  0.00    +0.142 A 
ATOM      3  C   UNL     1       0.421   5.565 -10.279  0.00  0.00    +0.038 A 
ATOM      4  C   UNL     1       0.275   5.366  -8.910  0.00  0.00    +0.023 A 
ATOM      5  C   UNL     1       1.360   5.480  -8.050  0.00  0.00    +0.122 A 
ATOM      6  C   UNL     1       2.599   5.295  -8.652  0.00  0.00    +0.026 A 
ENDROOT
BRANCH   1  12
ATOM      7  C   UNL     1       5.758   5.899 -13.845  0.00  0.00    +0.140 A 
ATOM      8  N   UNL     1       5.358   5.706 -12.570  0.00  0.00    -0.209 N 
ATOM      9  C   UNL     1       6.492   5.663 -11.835  0.00  0.00    +0.155 A 
ATOM     10  C   UNL     1       6.357   5.575 -10.469  0.00  0.00    +0.300 A 
ATOM     11  N   UNL     1       5.170   5.165  -9.965  0.00  0.00    -0.186 NA
ATOM     12  C   UNL     1       4.038   5.292 -10.695  0.00  0.00    +0.188 A 
ATOM     13  O   UNL     1       7.306   5.971  -9.731  0.00  0.00    -0.263 OA
ATOM     14  C   UNL     1       7.595   5.592 -12.669  0.00  0.00    +0.083 A 
ATOM     15  C   UNL     1       8.968   5.939 -12.192  0.00  0.00    +0.054 C 
ATOM     16  N   UNL     1       4.157   5.591 -12.010  0.00  0.00    -0.144 NA
ATOM     17  N   UNL     1       7.093   5.712 -13.920  0.00  0.00    -0.233 NA
BRANCH   7  18
ATOM     18  C   UNL     1       4.919   6.340 -14.998  0.00  0.00    +0.066 C 
BRANCH  18  20
ATOM     19  C   UNL     1       5.044   8.276 -16.545  0.00  0.00    +0.000 C 
ATOM     20  C   UNL     1       5.811   7.092 -15.977  0.00  0.00    +0.008 C 
ENDBRANCH  18  20
ENDBRANCH   7  18
ENDBRANCH   1  12
BRANCH   5  21
ATOM     21  S   UNL     1       1.206   6.275  -6.487  0.00  0.00    +0.063 S 
ATOM     22  O   UNL     1      -0.223   6.733  -6.368  0.00  0.00    -0.153 OA
ATOM     23  O   UNL     1       2.064   7.519  -6.439  0.00  0.00    -0.153 OA
BRANCH  21  24
ATOM     24  N   UNL     1       1.685   5.264  -5.196  0.00  0.00    -0.153 NA
ATOM     25  C   UNL     1       1.389   5.790  -3.895  0.00  0.00    +0.113 C 
ATOM     26  C   UNL     1       2.496   6.615  -3.303  0.00  0.00    +0.092 C 
ATOM     27  N   UNL     1       3.799   5.971  -3.445  0.00  0.00    -0.270 NA
ATOM     28  C   UNL     1       4.007   5.821  -4.884  0.00  0.00    +0.092 C 
ATOM     29  C   UNL     1       3.023   4.755  -5.336  0.00  0.00    +0.113 C 
BRANCH  27  30
ATOM     30  C   UNL     1       4.806   6.920  -2.990  0.00  0.00    +0.072 C 
ATOM     31  C   UNL     1       5.298   7.773  -4.128  0.00  0.00    +0.019 C 
ENDBRANCH  27  30
ENDBRANCH  21  24
ENDBRANCH   5  21
BRANCH   2  32
ATOM     32  O   UNL     1       1.857   6.735 -11.861  0.00  0.00    -0.475 OA
BRANCH  32  33
ATOM     33  C   UNL     1       0.947   6.847 -12.950  0.00  0.00    +0.206 C 
ATOM     34  C   UNL     1       1.076   5.716 -13.928  0.00  0.00    +0.051 C 
ENDBRANCH  32  33
ENDBRANCH   2  32
TORSDOF 8
ENDMDL
