MODEL 1
REMARK VINA RESULT:     -11.5      0.000      0.000
REMARK  Name = 
REMARK  6 active torsions:
REMARK  status: ('A' for Active; 'I' for Inactive)
REMARK    1  A    between atoms: C_2  and  C_3
REMARK    2  A    between atoms: C_6  and  O_7
REMARK    3  A    between atoms: O_7  and  C_8
REMARK    4  A    between atoms: C_8  and  C_10
REMARK    5  A    between atoms: C_10  and  S_11
REMARK    6  A    between atoms: S_11  and  C_12
REMARK                            x       y       z     vdW  Elec       q    Type
REMARK                         _______ _______ _______ _____ _____    ______ ____
ROOT
ATOM      1  C   UNL     1       2.220   5.808 -10.523  0.00  0.00    +0.050 C 
ATOM      2  C   UNL     1       2.442   5.800 -12.007  0.00  0.00    +0.156 C 
ATOM      3  O   UNL     1       1.159   5.854 -12.780  0.00  0.00    -0.223 OA
ATOM      4  C   UNL     1       3.649   5.750 -12.898  0.00  0.00    +0.031 C 
ATOM      5  C   UNL     1       3.287   5.766 -14.354  0.00  0.00    +0.003 C 
ATOM      6  C   UNL     1       5.130   5.687 -12.675  0.00  0.00    +0.009 C 
ATOM      7  C   UNL     1       6.020   5.649 -11.469  0.00  0.00    +0.061 C 
ATOM      8  C   UNL     1       7.443   5.589 -11.943  0.00  0.00    +0.150 C 
ATOM      9  C   UNL     1       7.430   5.591 -13.443  0.00  0.00    +0.065 C 
ATOM     10  O   UNL     1       8.662   5.537 -11.071  0.00  0.00    -0.296 OA
ATOM     11  C   UNL     1       5.798   5.657  -9.985  0.00  0.00    +0.043 C 
ATOM     12  C   UNL     1       4.343   5.718  -9.623  0.00  0.00    +0.004 C 
ATOM     13  C   UNL     1       3.929   5.735  -8.182  0.00  0.00    +0.000 C 
ATOM     14  C   UNL     1       3.303   5.763 -10.703  0.00  0.00    +0.000 C 
ATOM     15  C   UNL     1       7.081   5.603  -9.211  0.00  0.00    +0.004 C 
ATOM     16  C   UNL     1       4.592   5.707  -9.094  0.00  0.00    +0.169 C 
ATOM     17  C   UNL     1       3.718   5.746 -12.145  0.00  0.00    +0.001 C 
ATOM     18  C   UNL     1       6.001   5.651 -13.896  0.00  0.00    +0.008 C 
ATOM     19  C   UNL     1       3.110   5.770  -9.317  0.00  0.00    +0.050 C 
ATOM     20  C   UNL     1       0.846   5.866 -11.123  0.00  0.00    +0.007 C 
ENDROOT
BRANCH   1  22
ATOM     21  C   UNL     1      -0.197   5.860  -9.573  0.00  0.00    -0.005 C 
ATOM     22  C   UNL     1       1.286   5.847  -9.350  0.00  0.00    -0.024 C 
ENDBRANCH   1  22
BRANCH  16  23
ATOM     23  O   UNL     1       4.954   5.691  -7.638  0.00  0.00    -0.452 OA
BRANCH  23  24
ATOM     24  C   UNL     1       3.913   6.001  -6.604  0.00  0.00    +0.328 C 
ATOM     25  O   UNL     1       3.423   7.408  -6.430  0.00  0.00    -0.249 OA
BRANCH  24  26
ATOM     26  C   UNL     1       3.360   4.903  -5.743  0.00  0.00    +0.167 C 
BRANCH  26  27
ATOM     27  S   UNL     1       2.384   5.225  -4.652  0.00  0.00    -0.129 S 
BRANCH  27  28
ATOM     28  C   UNL     1       0.969   5.587  -4.995  0.00  0.00    +0.051 C 
ATOM     29  C   UNL     1       0.210   4.775  -6.002  0.00  0.00    +0.027 C 
ATOM     30  C   UNL     1      -1.198   5.268  -6.236  0.00  0.00    +0.058 C 
ATOM     31  N   UNL     1      -0.319   5.983  -5.253  0.00  0.00    -0.274 NA
ATOM     32  C   UNL     1      -1.102   7.123  -4.674  0.00  0.00    +0.058 C 
ATOM     33  C   UNL     1      -2.466   7.114  -5.298  0.00  0.00    +0.017 C 
ATOM     34  C   UNL     1       0.404   5.648  -5.200  0.00  0.00    +0.090 C 
ATOM     35  C   UNL     1      -2.525   5.966  -6.264  0.00  0.00    +0.017 C 
ATOM     36  C   UNL     1       0.313   6.761  -4.331  0.00  0.00    +0.027 C 
ENDBRANCH  27  28
ENDBRANCH  26  27
ENDBRANCH  24  26
ENDBRANCH  23  24
ENDBRANCH  16  23
TORSDOF 6
ENDMDL
MODEL 2
REMARK VINA RESULT:     -11.4      2.797      7.984
REMARK  Name = 
REMARK  6 active torsions:
REMARK  status: ('A' for Active; 'I' for Inactive)
REMARK    1  A    between atoms: C_2  and  C_3
REMARK    2  A    between atoms: C_6  and  O_7
REMARK    3  A    between atoms: O_7  and  C_8
REMARK    4  A    between atoms: C_8  and  C_10
REMARK    5  A    between atoms: C_10  and  S_11
REMARK    6  A    between atoms: S_11  and  C_12
REMARK                            x       y       z     vdW  Elec       q    Type
REMARK                         _______ _______ _______ _____ _____    ______ ____
ROOT
ATOM      1  C   UNL     1      -0.988   5.613  -5.083  0.00  0.00    +0.050 C 
ATOM      2  C   UNL     1      -0.956   5.571  -3.584  0.00  0.00    +0.156 C 
ATOM      3  O   UNL     1      -2.329   5.580  -2.979  0.00  0.00    -0.223 OA
ATOM      4  C   UNL     1       0.128   5.521  -2.547  0.00  0.00    +0.031 C 
ATOM      5  C   UNL     1      -0.416   5.492  -1.149  0.00  0.00    +0.003 C 
ATOM      6  C   UNL     1       1.627   5.493  -2.580  0.00  0.00    +0.009 C 
ATOM      7  C   UNL     1       2.664   5.504  -3.663  0.00  0.00    +0.061 C 
ATOM      8  C   UNL     1       4.015   5.460  -3.012  0.00  0.00    +0.150 C 
ATOM      9  C   UNL     1       3.812   5.422  -1.527  0.00  0.00    +0.065 C 
ATOM     10  O   UNL     1       5.337   5.455  -3.722  0.00  0.00    -0.296 OA
ATOM     11  C   UNL     1       2.632   5.546  -5.163  0.00  0.00    +0.043 C 
ATOM     12  C   UNL     1       1.234   5.588  -5.706  0.00  0.00    +0.004 C 
ATOM     13  C   UNL     1       1.006   5.634  -7.188  0.00  0.00    +0.000 C 
ATOM     14  C   UNL     1       0.065   5.584  -4.767  0.00  0.00    +0.000 C 
ATOM     15  C   UNL     1       4.004   5.537  -5.767  0.00  0.00    +0.004 C 
ATOM     16  C   UNL     1       1.549   5.596  -6.199  0.00  0.00    +0.169 C 
ATOM     17  C   UNL     1       0.293   5.538  -3.285  0.00  0.00    +0.001 C 
ATOM     18  C   UNL     1       2.336   5.443  -1.259  0.00  0.00    +0.008 C 
ATOM     19  C   UNL     1       0.049   5.623  -6.166  0.00  0.00    +0.050 C 
ATOM     20  C   UNL     1      -2.427   5.629  -4.662  0.00  0.00    +0.007 C 
ENDROOT
BRANCH   1  22
ATOM     21  C   UNL     1      -3.166   6.201  -6.371  0.00  0.00    -0.005 C 
ATOM     22  C   UNL     1      -1.766   5.663  -6.364  0.00  0.00    -0.024 C 
ENDBRANCH   1  22
BRANCH  16  23
ATOM     23  O   UNL     1       2.093   5.624  -7.597  0.00  0.00    -0.452 OA
BRANCH  23  24
ATOM     24  C   UNL     1       1.907   6.844  -8.448  0.00  0.00    +0.328 C 
ATOM     25  O   UNL     1       2.028   8.210  -7.839  0.00  0.00    -0.249 OA
BRANCH  24  26
ATOM     26  C   UNL     1       1.600   6.700  -9.910  0.00  0.00    +0.167 C 
BRANCH  26  27
ATOM     27  S   UNL     1       2.574   6.007 -10.815  0.00  0.00    -0.129 S 
BRANCH  27  28
ATOM     28  C   UNL     1       4.047   6.110 -10.552  0.00  0.00    +0.051 C 
ATOM     29  C   UNL     1       4.707   5.161  -9.596  0.00  0.00    +0.027 C 
ATOM     30  C   UNL     1       6.190   5.396  -9.441  0.00  0.00    +0.058 C 
ATOM     31  N   UNL     1       5.397   6.271 -10.366  0.00  0.00    -0.274 NA
ATOM     32  C   UNL     1       6.334   7.267 -10.980  0.00  0.00    +0.058 C 
ATOM     33  C   UNL     1       7.708   7.009 -10.436  0.00  0.00    +0.017 C 
ATOM     34  C   UNL     1       4.625   6.068 -10.379  0.00  0.00    +0.090 C 
ATOM     35  C   UNL     1       7.619   5.852  -9.484  0.00  0.00    +0.017 C 
ATOM     36  C   UNL     1       4.861   7.164 -11.244  0.00  0.00    +0.027 C 
ENDBRANCH  27  28
ENDBRANCH  26  27
ENDBRANCH  24  26
ENDBRANCH  23  24
ENDBRANCH  16  23
TORSDOF 6
ENDMDL
MODEL 3
REMARK VINA RESULT:     -11.4      2.889      9.083
REMARK  Name = 
REMARK  6 active torsions:
REMARK  status: ('A' for Active; 'I' for Inactive)
REMARK    1  A    between atoms: C_2  and  C_3
REMARK    2  A    between atoms: C_6  and  O_7
REMARK    3  A    between atoms: O_7  and  C_8
REMARK    4  A    between atoms: C_8  and  C_10
REMARK    5  A    between atoms: C_10  and  S_11
REMARK    6  A    between atoms: S_11  and  C_12
REMARK                            x       y       z     vdW  Elec       q    Type
REMARK                         _______ _______ _______ _____ _____    ______ ____
ROOT
ATOM      1  C   UNL     1       3.084   6.038  -3.692  0.00  0.00    +0.050 C 
ATOM      2  C   UNL     1       2.199   6.009  -2.481  0.00  0.00    +0.156 C 
ATOM      3  O   UNL     1       2.969   6.156  -1.203  0.00  0.00    -0.223 OA
ATOM      4  C   UNL     1       0.723   5.866  -2.250  0.00  0.00    +0.031 C 
ATOM      5  C   UNL     1       0.364   5.905  -0.794  0.00  0.00    +0.003 C 
ATOM      6  C   UNL     1      -0.477   5.694  -3.132  0.00  0.00    +0.009 C 
ATOM      7  C   UNL     1      -0.700   5.593  -4.612  0.00  0.00    +0.061 C 
ATOM      8  C   UNL     1      -2.172   5.426  -4.849  0.00  0.00    +0.150 C 
ATOM      9  C   UNL     1      -2.859   5.424  -3.515  0.00  0.00    +0.065 C 
ATOM     10  O   UNL     1      -2.841   5.286  -6.185  0.00  0.00    -0.296 OA
ATOM     11  C   UNL     1       0.185   5.623  -5.823  0.00  0.00    +0.043 C 
ATOM     12  C   UNL     1       1.633   5.793  -5.470  0.00  0.00    +0.004 C 
ATOM     13  C   UNL     1       2.668   5.845  -6.555  0.00  0.00    +0.000 C 
ATOM     14  C   UNL     1       2.047   5.912  -4.034  0.00  0.00    +0.000 C 
ATOM     15  C   UNL     1      -0.585   5.475  -7.101  0.00  0.00    +0.004 C 
ATOM     16  C   UNL     1       1.660   5.765  -6.054  0.00  0.00    +0.169 C 
ATOM     17  C   UNL     1       1.012   5.860  -2.949  0.00  0.00    +0.001 C 
ATOM     18  C   UNL     1      -1.812   5.589  -2.454  0.00  0.00    +0.008 C 
ATOM     19  C   UNL     1       2.861   5.938  -5.172  0.00  0.00    +0.050 C 
ATOM     20  C   UNL     1       4.014   6.197  -2.526  0.00  0.00    +0.007 C 
ENDROOT
BRANCH   1  22
ATOM     21  C   UNL     1       5.414   7.181  -3.792  0.00  0.00    -0.005 C 
ATOM     22  C   UNL     1       4.451   6.150  -4.299  0.00  0.00    -0.024 C 
ENDBRANCH   1  22
BRANCH  16  23
ATOM     23  O   UNL     1       2.019   5.727  -7.510  0.00  0.00    -0.452 OA
BRANCH  23  24
ATOM     24  C   UNL     1       2.489   6.973  -8.199  0.00  0.00    +0.328 C 
ATOM     25  O   UNL     1       2.063   8.318  -7.691  0.00  0.00    -0.249 OA
BRANCH  24  26
ATOM     26  C   UNL     1       3.387   6.873  -9.398  0.00  0.00    +0.167 C 
BRANCH  26  27
ATOM     27  S   UNL     1       4.148   5.609  -9.662  0.00  0.00    -0.129 S 
BRANCH  27  28
ATOM     28  C   UNL     1       5.391   5.644 -10.502  0.00  0.00    +0.051 C 
ATOM     29  C   UNL     1       6.728   5.844  -9.854  0.00  0.00    +0.027 C 
ATOM     30  C   UNL     1       7.877   5.855 -10.835  0.00  0.00    +0.058 C 
ATOM     31  N   UNL     1       6.477   5.663 -11.339  0.00  0.00    -0.274 NA
ATOM     32  C   UNL     1       6.538   5.512 -12.830  0.00  0.00    +0.058 C 
ATOM     33  C   UNL     1       7.975   5.610 -13.248  0.00  0.00    +0.017 C 
ATOM     34  C   UNL     1       5.943   5.672 -10.747  0.00  0.00    +0.090 C 
ATOM     35  C   UNL     1       8.803   5.822 -12.015  0.00  0.00    +0.017 C 
ATOM     36  C   UNL     1       5.295   5.477 -11.990  0.00  0.00    +0.027 C 
ENDBRANCH  27  28
ENDBRANCH  26  27
ENDBRANCH  24  26
ENDBRANCH  23  24
ENDBRANCH  16  23
TORSDOF 6
ENDMDL
MODEL 4
REMARK VINA RESULT:     -11.0      1.476      1.707
REMARK  Name = 
REMARK  6 active torsions:
REMARK  status: ('A' for Active; 'I' for Inactive)
REMARK    1  A    between atoms: C_2  and  C_3
REMARK    2  A    between atoms: C_6  and  O_7
REMARK    3  A    between atoms: O_7  and  C_8
REMARK    4  A    between atoms: C_8  and  C_10
REMARK    5  A    between atoms: C_10  and  S_11
REMARK    6  A    between atoms: S_11  and  C_12
REMARK                            x       y       z     vdW  Elec       q    Type
REMARK                         _______ _______ _______ _____ _____    ______ ____
ROOT
ATOM      1  C   UNL     1       1.712   5.935 -11.556  0.00  0.00    +0.050 C 
ATOM      2  C   UNL     1       2.564   5.965 -12.790  0.00  0.00    +0.156 C 
ATOM      3  O   UNL     1       1.755   6.115 -14.043  0.00  0.00    -0.223 OA
ATOM      4  C   UNL     1       4.038   5.879 -13.064  0.00  0.00    +0.031 C 
ATOM      5  C   UNL     1       4.355   5.965 -14.527  0.00  0.00    +0.003 C 
ATOM      6  C   UNL     1       5.266   5.729 -12.218  0.00  0.00    +0.009 C 
ATOM      7  C   UNL     1       5.533   5.601 -10.747  0.00  0.00    +0.061 C 
ATOM      8  C   UNL     1       7.016   5.480 -10.553  0.00  0.00    +0.150 C 
ATOM      9  C   UNL     1       7.665   5.534 -11.904  0.00  0.00    +0.065 C 
ATOM     10  O   UNL     1       7.724   5.332  -9.239  0.00  0.00    -0.296 OA
ATOM     11  C   UNL     1       4.680   5.571  -9.513  0.00  0.00    +0.043 C 
ATOM     12  C   UNL     1       3.218   5.699  -9.823  0.00  0.00    +0.004 C 
ATOM     13  C   UNL     1       2.212   5.688  -8.710  0.00  0.00    +0.000 C 
ATOM     14  C   UNL     1       2.762   5.836 -11.245  0.00  0.00    +0.000 C 
ATOM     15  C   UNL     1       5.490   5.420  -8.260  0.00  0.00    +0.004 C 
ATOM     16  C   UNL     1       3.208   5.656  -9.239  0.00  0.00    +0.169 C 
ATOM     17  C   UNL     1       3.768   5.847 -12.358  0.00  0.00    +0.001 C 
ATOM     18  C   UNL     1       6.585   5.687 -12.933  0.00  0.00    +0.008 C 
ATOM     19  C   UNL     1       1.978   5.807 -10.085  0.00  0.00    +0.050 C 
ATOM     20  C   UNL     1       0.746   6.088 -12.692  0.00  0.00    +0.007 C 
ENDROOT
BRANCH   1  22
ATOM     21  C   UNL     1      -0.649   7.000 -11.359  0.00  0.00    -0.005 C 
ATOM     22  C   UNL     1       0.359   5.984 -10.910  0.00  0.00    -0.024 C 
ENDBRANCH   1  22
BRANCH  16  23
ATOM     23  O   UNL     1       2.891   5.571  -7.776  0.00  0.00    -0.452 OA
BRANCH  23  24
ATOM     24  C   UNL     1       2.500   6.805  -7.020  0.00  0.00    +0.328 C 
ATOM     25  O   UNL     1       2.296   8.099  -7.751  0.00  0.00    -0.249 OA
BRANCH  24  26
ATOM     26  C   UNL     1       2.311   6.747  -5.532  0.00  0.00    +0.167 C 
BRANCH  26  27
ATOM     27  S   UNL     1       1.730   5.519  -4.898  0.00  0.00    -0.129 S 
BRANCH  27  28
ATOM     28  C   UNL     1       0.376   5.577  -4.256  0.00  0.00    +0.051 C 
ATOM     29  C   UNL     1      -0.858   5.602  -5.109  0.00  0.00    +0.027 C 
ATOM     30  C   UNL     1      -2.139   5.660  -4.312  0.00  0.00    +0.058 C 
ATOM     31  N   UNL     1      -0.824   5.630  -3.592  0.00  0.00    -0.274 NA
ATOM     32  C   UNL     1      -1.099   5.668  -2.119  0.00  0.00    +0.058 C 
ATOM     33  C   UNL     1      -2.586   5.721  -1.926  0.00  0.00    +0.017 C 
ATOM     34  C   UNL     1      -0.208   5.600  -4.098  0.00  0.00    +0.090 C 
ATOM     35  C   UNL     1      -3.230   5.717  -3.282  0.00  0.00    +0.017 C 
ATOM     36  C   UNL     1       0.255   5.610  -2.761  0.00  0.00    +0.027 C 
ENDBRANCH  27  28
ENDBRANCH  26  27
ENDBRANCH  24  26
ENDBRANCH  23  24
ENDBRANCH  16  23
TORSDOF 6
ENDMDL
MODEL 5
REMARK VINA RESULT:     -11.0      0.985      3.636
REMARK  Name = 
REMARK  6 active torsions:
REMARK  status: ('A' for Active; 'I' for Inactive)
REMARK    1  A    between atoms: C_2  and  C_3
REMARK    2  A    between atoms: C_6  and  O_7
REMARK    3  A    between atoms: O_7  and  C_8
REMARK    4  A    between atoms: C_8  and  C_10
REMARK    5  A    between atoms: C_10  and  S_11
REMARK    6  A    between atoms: S_11  and  C_12
REMARK                            x       y       z     vdW  Elec       q    Type
REMARK                         _______ _______ _______ _____ _____    ______ ____
ROOT
ATOM      1  C   UNL     1       6.021   5.768 -10.596  0.00  0.00    +0.050 C 
ATOM      2  C   UNL     1       5.848   5.955 -12.074  0.00  0.00    +0.156 C 
ATOM      3  O   UNL     1       7.149   6.204 -12.778  0.00  0.00    -0.223 OA
ATOM      4  C   UNL     1       4.679   5.952 -13.015  0.00  0.00    +0.031 C 
ATOM      5  C   UNL     1       5.085   6.199 -14.437  0.00  0.00    +0.003 C 
ATOM      6  C   UNL     1       3.199   5.761 -12.865  0.00  0.00    +0.009 C 
ATOM      7  C   UNL     1       2.275   5.493 -11.714  0.00  0.00    +0.061 C 
ATOM      8  C   UNL     1       0.877   5.407 -12.253  0.00  0.00    +0.150 C 
ATOM      9  C   UNL     1       0.938   5.622 -13.735  0.00  0.00    +0.065 C 
ATOM     10  O   UNL     1      -0.364   5.151 -11.449  0.00  0.00    -0.296 OA
ATOM     11  C   UNL     1       2.448   5.305 -10.236  0.00  0.00    +0.043 C 
ATOM     12  C   UNL     1       3.882   5.411  -9.808  0.00  0.00    +0.004 C 
ATOM     13  C   UNL     1       4.247   5.250  -8.362  0.00  0.00    +0.000 C 
ATOM     14  C   UNL     1       4.950   5.677 -10.827  0.00  0.00    +0.000 C 
ATOM     15  C   UNL     1       1.147   5.056  -9.533  0.00  0.00    +0.004 C 
ATOM     16  C   UNL     1       3.617   5.308  -9.297  0.00  0.00    +0.169 C 
ATOM     17  C   UNL     1       4.585   5.838 -12.273  0.00  0.00    +0.001 C 
ATOM     18  C   UNL     1       2.372   5.841 -14.115  0.00  0.00    +0.008 C 
ATOM     19  C   UNL     1       5.097   5.500  -9.445  0.00  0.00    +0.050 C 
ATOM     20  C   UNL     1       7.406   6.002 -11.123  0.00  0.00    +0.007 C 
ENDROOT
BRANCH   1  22
ATOM     21  C   UNL     1       8.344   5.281  -9.539  0.00  0.00    -0.005 C 
ATOM     22  C   UNL     1       6.912   5.701  -9.391  0.00  0.00    -0.024 C 
ENDBRANCH   1  22
BRANCH  16  23
ATOM     23  O   UNL     1       3.211   5.062  -7.874  0.00  0.00    -0.452 OA
BRANCH  23  24
ATOM     24  C   UNL     1       3.204   6.193  -6.890  0.00  0.00    +0.328 C 
ATOM     25  O   UNL     1       3.010   7.602  -7.367  0.00  0.00    -0.249 OA
BRANCH  24  26
ATOM     26  C   UNL     1       3.390   5.916  -5.426  0.00  0.00    +0.167 C 
BRANCH  26  27
ATOM     27  S   UNL     1       2.262   5.340  -4.623  0.00  0.00    -0.129 S 
BRANCH  27  28
ATOM     28  C   UNL     1       0.843   5.676  -4.975  0.00  0.00    +0.051 C 
ATOM     29  C   UNL     1       0.109   4.856  -5.993  0.00  0.00    +0.027 C 
ATOM     30  C   UNL     1      -1.307   5.322  -6.234  0.00  0.00    +0.058 C 
ATOM     31  N   UNL     1      -0.450   6.048  -5.241  0.00  0.00    -0.274 NA
ATOM     32  C   UNL     1      -1.260   7.169  -4.661  0.00  0.00    +0.058 C 
ATOM     33  C   UNL     1      -2.619   7.136  -5.296  0.00  0.00    +0.017 C 
ATOM     34  C   UNL     1       0.278   5.728  -5.184  0.00  0.00    +0.090 C 
ATOM     35  C   UNL     1      -2.648   5.994  -6.269  0.00  0.00    +0.017 C 
ATOM     36  C   UNL     1       0.159   6.833  -4.309  0.00  0.00    +0.027 C 
ENDBRANCH  27  28
ENDBRANCH  26  27
ENDBRANCH  24  26
ENDBRANCH  23  24
ENDBRANCH  16  23
TORSDOF 6
ENDMDL
MODEL 6
REMARK VINA RESULT:     -11.0      3.101      9.138
REMARK  Name = 
REMARK  6 active torsions:
REMARK  status: ('A' for Active; 'I' for Inactive)
REMARK    1  A    between atoms: C_2  and  C_3
REMARK    2  A    between atoms: C_6  and  O_7
REMARK    3  A    between atoms: O_7  and  C_8
REMARK    4  A    between atoms: C_8  and  C_10
REMARK    5  A    between atoms: C_10  and  S_11
REMARK    6  A    between atoms: S_11  and  C_12
REMARK                            x       y       z     vdW  Elec       q    Type
REMARK                         _______ _______ _______ _____ _____    ______ ____
ROOT
ATOM      1  C   UNL     1       2.369   6.641  -2.271  0.00  0.00    +0.050 C 
ATOM      2  C   UNL     1       1.218   6.408  -1.337  0.00  0.00    +0.156 C 
ATOM      3  O   UNL     1       1.621   6.499   0.105  0.00  0.00    -0.223 OA
ATOM      4  C   UNL     1      -0.242   6.105  -1.507  0.00  0.00    +0.031 C 
ATOM      5  C   UNL     1      -0.956   5.965  -0.196  0.00  0.00    +0.003 C 
ATOM      6  C   UNL     1      -1.154   5.910  -2.681  0.00  0.00    +0.009 C 
ATOM      7  C   UNL     1      -0.986   5.937  -4.171  0.00  0.00    +0.061 C 
ATOM      8  C   UNL     1      -2.323   5.657  -4.794  0.00  0.00    +0.150 C 
ATOM      9  C   UNL     1      -3.316   5.458  -3.688  0.00  0.00    +0.065 C 
ATOM     10  O   UNL     1      -2.614   5.589  -6.264  0.00  0.00    -0.296 OA
ATOM     11  C   UNL     1       0.164   6.170  -5.105  0.00  0.00    +0.043 C 
ATOM     12  C   UNL     1       1.448   6.440  -4.378  0.00  0.00    +0.004 C 
ATOM     13  C   UNL     1       2.709   6.696  -5.150  0.00  0.00    +0.000 C 
ATOM     14  C   UNL     1       1.472   6.453  -2.878  0.00  0.00    +0.000 C 
ATOM     15  C   UNL     1      -0.238   6.079  -6.547  0.00  0.00    +0.004 C 
ATOM     16  C   UNL     1       1.624   6.473  -4.935  0.00  0.00    +0.169 C 
ATOM     17  C   UNL     1       0.211   6.196  -2.106  0.00  0.00    +0.001 C 
ATOM     18  C   UNL     1      -2.594   5.614  -2.382  0.00  0.00    +0.008 C 
ATOM     19  C   UNL     1       2.537   6.668  -3.761  0.00  0.00    +0.050 C 
ATOM     20  C   UNL     1       2.952   6.769  -0.895  0.00  0.00    +0.007 C 
ENDROOT
BRANCH   1  22
ATOM     21  C   UNL     1       4.696   7.309  -1.331  0.00  0.00    -0.005 C 
ATOM     22  C   UNL     1       3.822   6.941  -2.492  0.00  0.00    -0.024 C 
ENDBRANCH   1  22
BRANCH  16  23
ATOM     23  O   UNL     1       2.337   6.614  -6.247  0.00  0.00    -0.452 OA
BRANCH  23  24
ATOM     24  C   UNL     1       3.244   5.521  -6.727  0.00  0.00    +0.328 C 
ATOM     25  O   UNL     1       4.582   5.317  -6.081  0.00  0.00    -0.249 OA
BRANCH  24  26
ATOM     26  C   UNL     1       2.813   4.630  -7.856  0.00  0.00    +0.167 C 
BRANCH  26  27
ATOM     27  S   UNL     1       3.802   4.215  -8.903  0.00  0.00    -0.129 S 
BRANCH  27  28
ATOM     28  C   UNL     1       4.740   5.227  -9.492  0.00  0.00    +0.051 C 
ATOM     29  C   UNL     1       6.192   5.212  -9.117  0.00  0.00    +0.027 C 
ATOM     30  C   UNL     1       7.000   6.293  -9.794  0.00  0.00    +0.058 C 
ATOM     31  N   UNL     1       5.530   6.185 -10.074  0.00  0.00    -0.274 NA
ATOM     32  C   UNL     1       5.162   7.266 -11.045  0.00  0.00    +0.058 C 
ATOM     33  C   UNL     1       6.405   8.043 -11.367  0.00  0.00    +0.017 C 
ATOM     34  C   UNL     1       5.193   5.585  -9.670  0.00  0.00    +0.090 C 
ATOM     35  C   UNL     1       7.541   7.442 -10.593  0.00  0.00    +0.017 C 
ATOM     36  C   UNL     1       4.225   6.254 -10.457  0.00  0.00    +0.027 C 
ENDBRANCH  27  28
ENDBRANCH  26  27
ENDBRANCH  24  26
ENDBRANCH  23  24
ENDBRANCH  16  23
TORSDOF 6
ENDMDL
MODEL 7
REMARK VINA RESULT:     -10.8      2.881      8.582
REMARK  Name = 
REMARK  6 active torsions:
REMARK  status: ('A' for Active; 'I' for Inactive)
REMARK    1  A    between atoms: C_2  and  C_3
REMARK    2  A    between atoms: C_6  and  O_7
REMARK    3  A    between atoms: O_7  and  C_8
REMARK    4  A    between atoms: C_8  and  C_10
REMARK    5  A    between atoms: C_10  and  S_11
REMARK    6  A    between atoms: S_11  and  C_12
REMARK                            x       y       z     vdW  Elec       q    Type
REMARK                         _______ _______ _______ _____ _____    ______ ____
ROOT
ATOM      1  C   UNL     1      -0.339   5.368  -5.855  0.00  0.00    +0.050 C 
ATOM      2  C   UNL     1      -1.501   5.736  -4.981  0.00  0.00    +0.156 C 
ATOM      3  O   UNL     1      -2.795   5.791  -5.737  0.00  0.00    -0.223 OA
ATOM      4  C   UNL     1      -1.672   6.062  -3.526  0.00  0.00    +0.031 C 
ATOM      5  C   UNL     1      -3.097   6.367  -3.170  0.00  0.00    +0.003 C 
ATOM      6  C   UNL     1      -0.753   6.155  -2.345  0.00  0.00    +0.009 C 
ATOM      7  C   UNL     1       0.719   5.961  -2.128  0.00  0.00    +0.061 C 
ATOM      8  C   UNL     1       1.011   6.211  -0.678  0.00  0.00    +0.150 C 
ATOM      9  C   UNL     1      -0.280   6.560   0.001  0.00  0.00    +0.065 C 
ATOM     10  O   UNL     1       2.358   6.127  -0.022  0.00  0.00    -0.296 OA
ATOM     11  C   UNL     1       1.881   5.592  -3.003  0.00  0.00    +0.043 C 
ATOM     12  C   UNL     1       1.475   5.365  -4.429  0.00  0.00    +0.004 C 
ATOM     13  C   UNL     1       2.507   4.988  -5.451  0.00  0.00    +0.000 C 
ATOM     14  C   UNL     1       0.039   5.516  -4.834  0.00  0.00    +0.000 C 
ATOM     15  C   UNL     1       3.174   5.537  -2.246  0.00  0.00    +0.004 C 
ATOM     16  C   UNL     1       2.052   5.266  -4.457  0.00  0.00    +0.169 C 
ATOM     17  C   UNL     1      -0.992   5.893  -3.812  0.00  0.00    +0.001 C 
ATOM     18  C   UNL     1      -1.370   6.526  -1.029  0.00  0.00    +0.008 C 
ATOM     19  C   UNL     1       1.132   5.173  -5.639  0.00  0.00    +0.050 C 
ATOM     20  C   UNL     1      -1.528   5.373  -6.770  0.00  0.00    +0.007 C 
ENDROOT
BRANCH   1  22
ATOM     21  C   UNL     1      -0.505   5.447  -8.446  0.00  0.00    -0.005 C 
ATOM     22  C   UNL     1       0.207   5.002  -7.204  0.00  0.00    -0.024 C 
ENDBRANCH   1  22
BRANCH  16  23
ATOM     23  O   UNL     1       3.476   4.961  -4.813  0.00  0.00    -0.452 OA
BRANCH  23  24
ATOM     24  C   UNL     1       4.290   5.966  -5.572  0.00  0.00    +0.328 C 
ATOM     25  O   UNL     1       5.119   6.973  -4.832  0.00  0.00    -0.249 OA
BRANCH  24  26
ATOM     26  C   UNL     1       4.276   5.964  -7.073  0.00  0.00    +0.167 C 
BRANCH  26  27
ATOM     27  S   UNL     1       5.163   5.021  -7.830  0.00  0.00    -0.129 S 
BRANCH  27  28
ATOM     28  C   UNL     1       5.685   5.406  -9.182  0.00  0.00    +0.051 C 
ATOM     29  C   UNL     1       4.757   5.451 -10.359  0.00  0.00    +0.027 C 
ATOM     30  C   UNL     1       5.436   5.856 -11.646  0.00  0.00    +0.058 C 
ATOM     31  N   UNL     1       6.240   5.767 -10.383  0.00  0.00    -0.274 NA
ATOM     32  C   UNL     1       7.658   6.130 -10.709  0.00  0.00    +0.058 C 
ATOM     33  C   UNL     1       7.732   6.444 -12.174  0.00  0.00    +0.017 C 
ATOM     34  C   UNL     1       5.794   5.546  -9.760  0.00  0.00    +0.090 C 
ATOM     35  C   UNL     1       6.357   6.274 -12.754  0.00  0.00    +0.017 C 
ATOM     36  C   UNL     1       7.136   5.745  -9.357  0.00  0.00    +0.027 C 
ENDBRANCH  27  28
ENDBRANCH  26  27
ENDBRANCH  24  26
ENDBRANCH  23  24
ENDBRANCH  16  23
TORSDOF 6
ENDMDL
MODEL 8
REMARK VINA RESULT:     -10.8      1.978      4.220
REMARK  Name = 
REMARK  6 active torsions:
REMARK  status: ('A' for Active; 'I' for Inactive)
REMARK    1  A    between atoms: C_2  and  C_3
REMARK    2  A    between atoms: C_6  and  O_7
REMARK    3  A    between atoms: O_7  and  C_8
REMARK    4  A    between atoms: C_8  and  C_10
REMARK    5  A    between atoms: C_10  and  S_11
REMARK    6  A    between atoms: S_11  and  C_12
REMARK                            x       y       z     vdW  Elec       q    Type
REMARK                         _______ _______ _______ _____ _____    ______ ____
ROOT
ATOM      1  C   UNL     1       5.194   5.458 -10.011  0.00  0.00    +0.050 C 
ATOM      2  C   UNL     1       6.549   5.696 -10.608  0.00  0.00    +0.156 C 
ATOM      3  O   UNL     1       7.652   5.563  -9.600  0.00  0.00    -0.223 OA
ATOM      4  C   UNL     1       7.061   6.035 -11.978  0.00  0.00    +0.031 C 
ATOM      5  C   UNL     1       8.555   6.162 -12.017  0.00  0.00    +0.003 C 
ATOM      6  C   UNL     1       6.428   6.277 -13.315  0.00  0.00    +0.009 C 
ATOM      7  C   UNL     1       5.023   6.280 -13.839  0.00  0.00    +0.061 C 
ATOM      8  C   UNL     1       5.074   6.604 -15.304  0.00  0.00    +0.150 C 
ATOM      9  C   UNL     1       6.511   6.801 -15.684  0.00  0.00    +0.065 C 
ATOM     10  O   UNL     1       3.895   6.712 -16.225  0.00  0.00    -0.296 OA
ATOM     11  C   UNL     1       3.667   6.042 -13.242  0.00  0.00    +0.043 C 
ATOM     12  C   UNL     1       3.733   5.728 -11.777  0.00  0.00    +0.004 C 
ATOM     13  C   UNL     1       2.472   5.460 -11.010  0.00  0.00    +0.000 C 
ATOM     14  C   UNL     1       5.060   5.680 -11.079  0.00  0.00    +0.000 C 
ATOM     15  C   UNL     1       2.564   6.175 -14.250  0.00  0.00    +0.004 C 
ATOM     16  C   UNL     1       3.156   5.703 -11.874  0.00  0.00    +0.169 C 
ATOM     17  C   UNL     1       6.321   5.948 -11.846  0.00  0.00    +0.001 C 
ATOM     18  C   UNL     1       7.349   6.599 -14.456  0.00  0.00    +0.008 C 
ATOM     19  C   UNL     1       3.788   5.461 -10.535  0.00  0.00    +0.050 C 
ATOM     20  C   UNL     1       6.156   5.286  -8.873  0.00  0.00    +0.007 C 
ENDROOT
BRANCH   1  22
ATOM     21  C   UNL     1       4.910   5.209  -7.441  0.00  0.00    -0.005 C 
ATOM     22  C   UNL     1       4.337   5.131  -8.824  0.00  0.00    -0.024 C 
ENDBRANCH   1  22
BRANCH  16  23
ATOM     23  O   UNL     1       1.662   5.576 -11.834  0.00  0.00    -0.452 OA
BRANCH  23  24
ATOM     24  C   UNL     1       0.904   6.025 -10.621  0.00  0.00    +0.328 C 
ATOM     25  O   UNL     1       0.613   7.482 -10.415  0.00  0.00    -0.249 OA
BRANCH  24  26
ATOM     26  C   UNL     1       0.435   5.017  -9.613  0.00  0.00    +0.167 C 
BRANCH  26  27
ATOM     27  S   UNL     1      -0.094   5.473  -8.286  0.00  0.00    -0.129 S 
BRANCH  27  28
ATOM     28  C   UNL     1       0.847   5.702  -7.142  0.00  0.00    +0.051 C 
ATOM     29  C   UNL     1       1.530   7.028  -6.986  0.00  0.00    +0.027 C 
ATOM     30  C   UNL     1       2.444   7.097  -5.786  0.00  0.00    +0.058 C 
ATOM     31  N   UNL     1       1.693   5.831  -6.069  0.00  0.00    -0.274 NA
ATOM     32  C   UNL     1       2.048   4.833  -5.007  0.00  0.00    +0.058 C 
ATOM     33  C   UNL     1       3.019   5.483  -4.067  0.00  0.00    +0.017 C 
ATOM     34  C   UNL     1       1.238   5.893  -6.722  0.00  0.00    +0.090 C 
ATOM     35  C   UNL     1       3.265   6.883  -4.548  0.00  0.00    +0.017 C 
ATOM     36  C   UNL     1       1.106   4.604  -6.152  0.00  0.00    +0.027 C 
ENDBRANCH  27  28
ENDBRANCH  26  27
ENDBRANCH  24  26
ENDBRANCH  23  24
ENDBRANCH  16  23
TORSDOF 6
ENDMDL
MODEL 9
REMARK VINA RESULT:     -10.6      1.490      2.378
REMARK  Name = 
REMARK  6 active torsions:
REMARK  status: ('A' for Active; 'I' for Inactive)
REMARK    1  A    between atoms: C_2  and  C_3
REMARK    2  A    between atoms: C_6  and  O_7
REMARK    3  A    between atoms: O_7  and  C_8
REMARK    4  A    between atoms: C_8  and  C_10
REMARK    5  A    between atoms: C_10  and  S_11
REMARK    6  A    between atoms: S_11  and  C_12
REMARK                            x       y       z     vdW  Elec       q    Type
REMARK                         _______ _______ _______ _____ _____    ______ ____
ROOT
ATOM      1  C   UNL     1       2.884   6.114 -12.994  0.00  0.00    +0.050 C 
ATOM      2  C   UNL     1       4.028   6.123 -13.965  0.00  0.00    +0.156 C 
ATOM      3  O   UNL     1       3.574   6.283 -15.385  0.00  0.00    -0.223 OA
ATOM      4  C   UNL     1       5.520   6.009 -13.848  0.00  0.00    +0.031 C 
ATOM      5  C   UNL     1       6.207   6.082 -15.179  0.00  0.00    +0.003 C 
ATOM      6  C   UNL     1       6.484   5.839 -12.712  0.00  0.00    +0.009 C 
ATOM      7  C   UNL     1       6.358   5.713 -11.223  0.00  0.00    +0.061 C 
ATOM      8  C   UNL     1       7.737   5.566 -10.651  0.00  0.00    +0.150 C 
ATOM      9  C   UNL     1       8.715   5.601 -11.788  0.00  0.00    +0.065 C 
ATOM     10  O   UNL     1       8.078   5.410  -9.199  0.00  0.00    -0.296 OA
ATOM     11  C   UNL     1       5.214   5.704 -10.252  0.00  0.00    +0.043 C 
ATOM     12  C   UNL     1       3.885   5.858 -10.930  0.00  0.00    +0.004 C 
ATOM     13  C   UNL     1       2.625   5.871 -10.116  0.00  0.00    +0.000 C 
ATOM     14  C   UNL     1       3.816   5.998 -12.422  0.00  0.00    +0.000 C 
ATOM     15  C   UNL     1       5.668   5.544  -8.832  0.00  0.00    +0.004 C 
ATOM     16  C   UNL     1       3.723   5.818 -10.369  0.00  0.00    +0.169 C 
ATOM     17  C   UNL     1       5.076   5.984 -13.236  0.00  0.00    +0.001 C 
ATOM     18  C   UNL     1       7.941   5.770 -13.062  0.00  0.00    +0.008 C 
ATOM     19  C   UNL     1       2.758   5.988 -11.505  0.00  0.00    +0.050 C 
ATOM     20  C   UNL     1       2.249   6.280 -14.342  0.00  0.00    +0.007 C 
ENDROOT
BRANCH   1  22
ATOM     21  C   UNL     1       0.558   7.162 -13.482  0.00  0.00    -0.005 C 
ATOM     22  C   UNL     1       1.411   6.191 -12.722  0.00  0.00    -0.024 C 
ENDBRANCH   1  22
BRANCH  16  23
ATOM     23  O   UNL     1       3.036   5.745  -9.038  0.00  0.00    -0.452 OA
BRANCH  23  24
ATOM     24  C   UNL     1       2.065   4.637  -8.755  0.00  0.00    +0.328 C 
ATOM     25  O   UNL     1       0.889   4.421  -9.660  0.00  0.00    -0.249 OA
BRANCH  24  26
ATOM     26  C   UNL     1       2.271   3.745  -7.566  0.00  0.00    +0.167 C 
BRANCH  26  27
ATOM     27  S   UNL     1       2.092   4.289  -6.180  0.00  0.00    -0.129 S 
BRANCH  27  28
ATOM     28  C   UNL     1       0.916   5.164  -5.865  0.00  0.00    +0.051 C 
ATOM     29  C   UNL     1       1.109   6.425  -5.075  0.00  0.00    +0.027 C 
ATOM     30  C   UNL     1      -0.170   7.192  -4.843  0.00  0.00    +0.058 C 
ATOM     31  N   UNL     1      -0.209   5.909  -5.618  0.00  0.00    -0.274 NA
ATOM     32  C   UNL     1      -1.631   5.654  -6.023  0.00  0.00    +0.058 C 
ATOM     33  C   UNL     1      -2.472   6.780  -5.497  0.00  0.00    +0.017 C 
ATOM     34  C   UNL     1       0.514   5.580  -5.687  0.00  0.00    +0.090 C 
ATOM     35  C   UNL     1      -1.569   7.731  -4.767  0.00  0.00    +0.017 C 
ATOM     36  C   UNL     1      -0.454   4.779  -6.339  0.00  0.00    +0.027 C 
ENDBRANCH  27  28
ENDBRANCH  26  27
ENDBRANCH  24  26
ENDBRANCH  23  24
ENDBRANCH  16  23
TORSDOF 6
ENDMDL
