MODEL 1
REMARK VINA RESULT:      -7.0      0.000      0.000
REMARK  Name = 
REMARK  6 active torsions:
REMARK  status: ('A' for Active; 'I' for Inactive)
REMARK    1  A    between atoms: C_7  and  C_8
REMARK    2  A    between atoms: C_8  and  O_9
REMARK    3  A    between atoms: C_8  and  C_15
REMARK    4  A    between atoms: O_9  and  C_10
REMARK    5  A    between atoms: C_10  and  C_11
REMARK    6  A    between atoms: C_11  and  N_12
REMARK                            x       y       z     vdW  Elec       q    Type
REMARK                         _______ _______ _______ _____ _____    ______ ____
ROOT
ATOM      1  C   UNL     1       1.938   5.423  -7.028  0.00  0.00    +0.159 C 
ENDROOT
BRANCH   1   4
ATOM      2  C   UNL     1      -0.424   5.488  -8.513  0.00  0.00    +0.031 C 
ATOM      3  C   UNL     1      -0.562   5.399  -7.138  0.00  0.00    -0.023 A 
ATOM      4  C   UNL     1       0.488   5.180  -6.253  0.00  0.00    +0.005 A 
ATOM      5  C   UNL     1       0.412   5.719  -5.008  0.00  0.00    -0.002 A 
ATOM      6  C   UNL     1      -0.823   5.597  -4.380  0.00  0.00    -0.000 A 
ATOM      7  C   UNL     1      -1.948   5.715  -5.184  0.00  0.00    -0.000 A 
ATOM      8  C   UNL     1      -1.798   5.647  -6.552  0.00  0.00    -0.004 A 
ENDBRANCH   1   4
BRANCH   1   9
ATOM      9  C   UNL     1       2.736   5.719  -5.604  0.00  0.00    +0.009 A 
ATOM     10  C   UNL     1       3.317   6.964  -5.695  0.00  0.00    -0.002 A 
ATOM     11  C   UNL     1       4.386   7.259  -4.878  0.00  0.00    -0.000 A 
ATOM     12  C   UNL     1       5.012   6.252  -4.192  0.00  0.00    -0.000 A 
ATOM     13  C   UNL     1       4.334   5.064  -4.060  0.00  0.00    -0.000 A 
ATOM     14  C   UNL     1       3.397   4.716  -5.025  0.00  0.00    -0.002 A 
ENDBRANCH   1   9
BRANCH   1  15
ATOM     15  O   UNL     1       2.262   3.894  -7.057  0.00  0.00    -0.346 OA
BRANCH  15  16
ATOM     16  C   UNL     1       2.590   3.691  -8.385  0.00  0.00    +0.160 C 
BRANCH  16  17
ATOM     17  C   UNL     1       3.144   4.907  -9.053  0.00  0.00    +0.105 C 
BRANCH  17  18
ATOM     18  N   UNL     1       4.519   4.803  -9.438  0.00  0.00    -0.268 NA
ATOM     19  C   UNL     1       5.457   5.256  -8.445  0.00  0.00    +0.090 C 
ATOM     20  C   UNL     1       4.708   5.437 -10.713  0.00  0.00    +0.090 C 
ENDBRANCH  17  18
ENDBRANCH  16  17
ENDBRANCH  15  16
ENDBRANCH   1  15
TORSDOF 6
ENDMDL
MODEL 2
REMARK VINA RESULT:      -6.6      1.759      4.324
REMARK  Name = 
REMARK  6 active torsions:
REMARK  status: ('A' for Active; 'I' for Inactive)
REMARK    1  A    between atoms: C_7  and  C_8
REMARK    2  A    between atoms: C_8  and  O_9
REMARK    3  A    between atoms: C_8  and  C_15
REMARK    4  A    between atoms: O_9  and  C_10
REMARK    5  A    between atoms: C_10  and  C_11
REMARK    6  A    between atoms: C_11  and  N_12
REMARK                            x       y       z     vdW  Elec       q    Type
REMARK                         _______ _______ _______ _____ _____    ______ ____
ROOT
ATOM      1  C   UNL     1       1.408   5.017  -8.089  0.00  0.00    +0.159 C 
ENDROOT
BRANCH   1   4
ATOM      2  C   UNL     1       1.971   4.783  -5.365  0.00  0.00    +0.031 C 
ATOM      3  C   UNL     1       0.723   5.283  -5.697  0.00  0.00    -0.023 A 
ATOM      4  C   UNL     1       0.331   5.633  -6.984  0.00  0.00    +0.005 A 
ATOM      5  C   UNL     1      -0.976   5.492  -7.326  0.00  0.00    -0.002 A 
ATOM      6  C   UNL     1      -1.892   5.927  -6.374  0.00  0.00    -0.000 A 
ATOM      7  C   UNL     1      -1.565   5.704  -5.044  0.00  0.00    -0.000 A 
ATOM      8  C   UNL     1      -0.270   5.354  -4.727  0.00  0.00    -0.004 A 
ENDBRANCH   1   4
BRANCH   1   9
ATOM      9  C   UNL     1       0.470   5.480  -9.377  0.00  0.00    +0.009 A 
ATOM     10  C   UNL     1       0.436   4.434 -10.271  0.00  0.00    -0.002 A 
ATOM     11  C   UNL     1       0.131   4.698 -11.588  0.00  0.00    -0.000 A 
ATOM     12  C   UNL     1       0.126   5.992 -12.036  0.00  0.00    -0.000 A 
ATOM     13  C   UNL     1       0.066   6.986 -11.089  0.00  0.00    -0.000 A 
ATOM     14  C   UNL     1       0.570   6.733  -9.819  0.00  0.00    -0.002 A 
ENDBRANCH   1   9
BRANCH   1  15
ATOM     15  O   UNL     1       2.279   6.316  -8.074  0.00  0.00    -0.346 OA
BRANCH  15  16
ATOM     16  C   UNL     1       3.563   5.806  -8.050  0.00  0.00    +0.160 C 
BRANCH  16  17
ATOM     17  C   UNL     1       3.789   4.716  -9.045  0.00  0.00    +0.105 C 
BRANCH  17  18
ATOM     18  N   UNL     1       4.645   5.070 -10.136  0.00  0.00    -0.268 NA
ATOM     19  C   UNL     1       5.805   5.837  -9.766  0.00  0.00    +0.090 C 
ATOM     20  C   UNL     1       3.868   5.698 -11.169  0.00  0.00    +0.090 C 
ENDBRANCH  17  18
ENDBRANCH  16  17
ENDBRANCH  15  16
ENDBRANCH   1  15
TORSDOF 6
ENDMDL
MODEL 3
REMARK VINA RESULT:      -6.6      2.767      5.104
REMARK  Name = 
REMARK  6 active torsions:
REMARK  status: ('A' for Active; 'I' for Inactive)
REMARK    1  A    between atoms: C_7  and  C_8
REMARK    2  A    between atoms: C_8  and  O_9
REMARK    3  A    between atoms: C_8  and  C_15
REMARK    4  A    between atoms: O_9  and  C_10
REMARK    5  A    between atoms: C_10  and  C_11
REMARK    6  A    between atoms: C_11  and  N_12
REMARK                            x       y       z     vdW  Elec       q    Type
REMARK                         _______ _______ _______ _____ _____    ______ ____
ROOT
ATOM      1  C   UNL     1       1.053   5.679  -5.395  0.00  0.00    +0.159 C 
ENDROOT
BRANCH   1   4
ATOM      2  C   UNL     1      -1.109   4.950  -7.002  0.00  0.00    +0.031 C 
ATOM      3  C   UNL     1      -0.103   5.678  -7.614  0.00  0.00    -0.023 A 
ATOM      4  C   UNL     1       0.958   6.276  -6.943  0.00  0.00    +0.005 A 
ATOM      5  C   UNL     1       2.151   6.389  -7.582  0.00  0.00    -0.002 A 
ATOM      6  C   UNL     1       2.081   6.807  -8.906  0.00  0.00    -0.000 A 
ATOM      7  C   UNL     1       1.010   6.338  -9.655  0.00  0.00    -0.000 A 
ATOM      8  C   UNL     1      -0.052   5.751  -9.001  0.00  0.00    -0.004 A 
ENDBRANCH   1   4
BRANCH   1   9
ATOM      9  C   UNL     1       2.688   5.947  -5.310  0.00  0.00    +0.009 A 
ATOM     10  C   UNL     1       3.289   4.770  -4.924  0.00  0.00    -0.002 A 
ATOM     11  C   UNL     1       4.537   4.823  -4.343  0.00  0.00    -0.000 A 
ATOM     12  C   UNL     1       5.039   6.027  -3.926  0.00  0.00    -0.000 A 
ATOM     13  C   UNL     1       4.448   7.163  -4.424  0.00  0.00    -0.000 A 
ATOM     14  C   UNL     1       3.117   7.109  -4.817  0.00  0.00    -0.002 A 
ENDBRANCH   1   9
BRANCH   1  15
ATOM     15  O   UNL     1       0.651   7.051  -4.762  0.00  0.00    -0.346 OA
BRANCH  15  16
ATOM     16  C   UNL     1      -0.493   6.724  -4.059  0.00  0.00    +0.160 C 
BRANCH  16  17
ATOM     17  C   UNL     1      -0.315   5.558  -3.143  0.00  0.00    +0.105 C 
BRANCH  17  18
ATOM     18  N   UNL     1      -1.512   5.121  -2.492  0.00  0.00    -0.268 NA
ATOM     19  C   UNL     1      -2.708   5.253  -3.281  0.00  0.00    +0.090 C 
ATOM     20  C   UNL     1      -1.619   5.757  -1.208  0.00  0.00    +0.090 C 
ENDBRANCH  17  18
ENDBRANCH  16  17
ENDBRANCH  15  16
ENDBRANCH   1  15
TORSDOF 6
ENDMDL
MODEL 4
REMARK VINA RESULT:      -6.5      2.381      4.780
REMARK  Name = 
REMARK  6 active torsions:
REMARK  status: ('A' for Active; 'I' for Inactive)
REMARK    1  A    between atoms: C_7  and  C_8
REMARK    2  A    between atoms: C_8  and  O_9
REMARK    3  A    between atoms: C_8  and  C_15
REMARK    4  A    between atoms: O_9  and  C_10
REMARK    5  A    between atoms: C_10  and  C_11
REMARK    6  A    between atoms: C_11  and  N_12
REMARK                            x       y       z     vdW  Elec       q    Type
REMARK                         _______ _______ _______ _____ _____    ______ ____
ROOT
ATOM      1  C   UNL     1       1.233   6.457  -5.335  0.00  0.00    +0.159 C 
ENDROOT
BRANCH   1   4
ATOM      2  C   UNL     1       2.616   7.591  -7.478  0.00  0.00    +0.031 C 
ATOM      3  C   UNL     1       1.635   6.668  -7.796  0.00  0.00    -0.023 A 
ATOM      4  C   UNL     1       0.967   5.875  -6.869  0.00  0.00    +0.005 A 
ATOM      5  C   UNL     1      -0.317   5.516  -7.125  0.00  0.00    -0.002 A 
ATOM      6  C   UNL     1      -0.573   5.106  -8.429  0.00  0.00    -0.000 A 
ATOM      7  C   UNL     1       0.105   5.774  -9.440  0.00  0.00    -0.000 A 
ATOM      8  C   UNL     1       1.178   6.571  -9.106  0.00  0.00    -0.004 A 
ENDBRANCH   1   4
BRANCH   1   9
ATOM      9  C   UNL     1      -0.375   6.368  -4.940  0.00  0.00    +0.009 A 
ATOM     10  C   UNL     1      -0.888   7.645  -4.966  0.00  0.00    -0.002 A 
ATOM     11  C   UNL     1      -2.036   7.913  -4.253  0.00  0.00    -0.000 A 
ATOM     12  C   UNL     1      -2.493   7.002  -3.338  0.00  0.00    -0.000 A 
ATOM     13  C   UNL     1      -2.006   5.720  -3.429  0.00  0.00    -0.000 A 
ATOM     14  C   UNL     1      -0.748   5.518  -3.982  0.00  0.00    -0.002 A 
ENDBRANCH   1   9
BRANCH   1  15
ATOM     15  O   UNL     1       1.595   5.041  -4.781  0.00  0.00    -0.346 OA
BRANCH  15  16
ATOM     16  C   UNL     1       2.966   5.128  -4.630  0.00  0.00    +0.160 C 
BRANCH  16  17
ATOM     17  C   UNL     1       3.387   5.581  -3.270  0.00  0.00    +0.105 C 
BRANCH  17  18
ATOM     18  N   UNL     1       4.316   6.670  -3.264  0.00  0.00    -0.268 NA
ATOM     19  C   UNL     1       3.786   7.911  -2.764  0.00  0.00    +0.090 C 
ATOM     20  C   UNL     1       4.908   6.802  -4.567  0.00  0.00    +0.090 C 
ENDBRANCH  17  18
ENDBRANCH  16  17
ENDBRANCH  15  16
ENDBRANCH   1  15
TORSDOF 6
ENDMDL
MODEL 5
REMARK VINA RESULT:      -6.4      1.861      4.666
REMARK  Name = 
REMARK  6 active torsions:
REMARK  status: ('A' for Active; 'I' for Inactive)
REMARK    1  A    between atoms: C_7  and  C_8
REMARK    2  A    between atoms: C_8  and  O_9
REMARK    3  A    between atoms: C_8  and  C_15
REMARK    4  A    between atoms: O_9  and  C_10
REMARK    5  A    between atoms: C_10  and  C_11
REMARK    6  A    between atoms: C_11  and  N_12
REMARK                            x       y       z     vdW  Elec       q    Type
REMARK                         _______ _______ _______ _____ _____    ______ ____
ROOT
ATOM      1  C   UNL     1       1.741   5.936  -6.714  0.00  0.00    +0.159 C 
ENDROOT
BRANCH   1   4
ATOM      2  C   UNL     1       4.491   5.470  -6.821  0.00  0.00    +0.031 C 
ATOM      3  C   UNL     1       3.930   5.565  -5.558  0.00  0.00    -0.023 A 
ATOM      4  C   UNL     1       2.622   5.964  -5.305  0.00  0.00    +0.005 A 
ATOM      5  C   UNL     1       1.982   5.447  -4.224  0.00  0.00    -0.002 A 
ATOM      6  C   UNL     1       2.736   5.386  -3.057  0.00  0.00    -0.000 A 
ATOM      7  C   UNL     1       4.082   5.076  -3.197  0.00  0.00    -0.000 A 
ATOM      8  C   UNL     1       4.651   5.138  -4.450  0.00  0.00    -0.004 A 
ENDBRANCH   1   4
BRANCH   1   9
ATOM      9  C   UNL     1       0.296   5.938  -5.900  0.00  0.00    +0.009 A 
ATOM     10  C   UNL     1      -0.596   5.177  -6.622  0.00  0.00    -0.002 A 
ATOM     11  C   UNL     1      -1.945   5.381  -6.433  0.00  0.00    -0.000 A 
ATOM     12  C   UNL     1      -2.375   6.487  -5.748  0.00  0.00    -0.000 A 
ATOM     13  C   UNL     1      -1.450   7.145  -4.973  0.00  0.00    -0.000 A 
ATOM     14  C   UNL     1      -0.107   7.069  -5.321  0.00  0.00    -0.002 A 
ENDBRANCH   1   9
BRANCH   1  15
ATOM     15  O   UNL     1       1.814   7.489  -6.877  0.00  0.00    -0.346 OA
BRANCH  15  16
ATOM     16  C   UNL     1       2.161   7.627  -8.207  0.00  0.00    +0.160 C 
BRANCH  16  17
ATOM     17  C   UNL     1       1.903   6.400  -9.020  0.00  0.00    +0.105 C 
BRANCH  17  18
ATOM     18  N   UNL     1       1.302   6.644 -10.296  0.00  0.00    -0.268 NA
ATOM     19  C   UNL     1      -0.052   6.175 -10.423  0.00  0.00    +0.090 C 
ATOM     20  C   UNL     1       2.163   6.147 -11.333  0.00  0.00    +0.090 C 
ENDBRANCH  17  18
ENDBRANCH  16  17
ENDBRANCH  15  16
ENDBRANCH   1  15
TORSDOF 6
ENDMDL
MODEL 6
REMARK VINA RESULT:      -6.4      2.092      5.188
REMARK  Name = 
REMARK  6 active torsions:
REMARK  status: ('A' for Active; 'I' for Inactive)
REMARK    1  A    between atoms: C_7  and  C_8
REMARK    2  A    between atoms: C_8  and  O_9
REMARK    3  A    between atoms: C_8  and  C_15
REMARK    4  A    between atoms: O_9  and  C_10
REMARK    5  A    between atoms: C_10  and  C_11
REMARK    6  A    between atoms: C_11  and  N_12
REMARK                            x       y       z     vdW  Elec       q    Type
REMARK                         _______ _______ _______ _____ _____    ______ ____
ROOT
ATOM      1  C   UNL     1       2.883   5.109  -6.779  0.00  0.00    +0.159 C 
ENDROOT
BRANCH   1   4
ATOM      2  C   UNL     1       1.840   4.730  -9.339  0.00  0.00    +0.031 C 
ATOM      3  C   UNL     1       3.145   5.188  -9.266  0.00  0.00    -0.023 A 
ATOM      4  C   UNL     1       3.771   5.599  -8.095  0.00  0.00    +0.005 A 
ATOM      5  C   UNL     1       5.112   5.416  -7.976  0.00  0.00    -0.002 A 
ATOM      6  C   UNL     1       5.861   5.743  -9.100  0.00  0.00    -0.000 A 
ATOM      7  C   UNL     1       5.296   5.453 -10.335  0.00  0.00    -0.000 A 
ATOM      8  C   UNL     1       3.953   5.147 -10.396  0.00  0.00    -0.004 A 
ENDBRANCH   1   4
BRANCH   1   9
ATOM      9  C   UNL     1       4.000   5.705  -5.707  0.00  0.00    +0.009 A 
ATOM     10  C   UNL     1       4.084   4.824  -4.652  0.00  0.00    -0.002 A 
ATOM     11  C   UNL     1       4.567   5.280  -3.445  0.00  0.00    -0.000 A 
ATOM     12  C   UNL     1       4.703   6.626  -3.235  0.00  0.00    -0.000 A 
ATOM     13  C   UNL     1       4.702   7.440  -4.342  0.00  0.00    -0.000 A 
ATOM     14  C   UNL     1       4.029   7.019  -5.483  0.00  0.00    -0.002 A 
ENDBRANCH   1   9
BRANCH   1  15
ATOM     15  O   UNL     1       2.003   6.402  -6.799  0.00  0.00    -0.346 OA
BRANCH  15  16
ATOM     16  C   UNL     1       0.815   5.954  -6.252  0.00  0.00    +0.160 C 
BRANCH  16  17
ATOM     17  C   UNL     1       0.286   6.840  -5.172  0.00  0.00    +0.105 C 
BRANCH  17  18
ATOM     18  N   UNL     1      -1.116   6.700  -4.917  0.00  0.00    -0.268 NA
ATOM     19  C   UNL     1      -1.841   5.973  -5.926  0.00  0.00    +0.090 C 
ATOM     20  C   UNL     1      -1.684   7.991  -4.643  0.00  0.00    +0.090 C 
ENDBRANCH  17  18
ENDBRANCH  16  17
ENDBRANCH  15  16
ENDBRANCH   1  15
TORSDOF 6
ENDMDL
MODEL 7
REMARK VINA RESULT:      -6.1      2.753      5.072
REMARK  Name = 
REMARK  6 active torsions:
REMARK  status: ('A' for Active; 'I' for Inactive)
REMARK    1  A    between atoms: C_7  and  C_8
REMARK    2  A    between atoms: C_8  and  O_9
REMARK    3  A    between atoms: C_8  and  C_15
REMARK    4  A    between atoms: O_9  and  C_10
REMARK    5  A    between atoms: C_10  and  C_11
REMARK    6  A    between atoms: C_11  and  N_12
REMARK                            x       y       z     vdW  Elec       q    Type
REMARK                         _______ _______ _______ _____ _____    ______ ____
ROOT
ATOM      1  C   UNL     1       1.148   5.647  -4.946  0.00  0.00    +0.159 C 
ENDROOT
BRANCH   1   4
ATOM      2  C   UNL     1       0.164   5.091  -2.395  0.00  0.00    +0.031 C 
ATOM      3  C   UNL     1      -0.386   6.184  -3.043  0.00  0.00    -0.023 A 
ATOM      4  C   UNL     1       0.094   6.716  -4.235  0.00  0.00    +0.005 A 
ATOM      5  C   UNL     1      -0.789   7.298  -5.089  0.00  0.00    -0.002 A 
ATOM      6  C   UNL     1      -1.731   8.131  -4.497  0.00  0.00    -0.000 A 
ATOM      7  C   UNL     1      -2.222   7.741  -3.258  0.00  0.00    -0.000 A 
ATOM      8  C   UNL     1      -1.561   6.750  -2.564  0.00  0.00    -0.004 A 
ENDBRANCH   1   4
BRANCH   1   9
ATOM      9  C   UNL     1       0.999   6.370  -6.432  0.00  0.00    +0.009 A 
ATOM     10  C   UNL     1       0.433   5.455  -7.292  0.00  0.00    -0.002 A 
ATOM     11  C   UNL     1       0.616   5.618  -8.647  0.00  0.00    -0.000 A 
ATOM     12  C   UNL     1       1.553   6.508  -9.102  0.00  0.00    -0.000 A 
ATOM     13  C   UNL     1       2.006   7.453  -8.214  0.00  0.00    -0.000 A 
ATOM     14  C   UNL     1       1.983   7.163  -6.855  0.00  0.00    -0.002 A 
ENDBRANCH   1   9
BRANCH   1  15
ATOM     15  O   UNL     1       2.399   6.476  -4.510  0.00  0.00    -0.346 OA
BRANCH  15  16
ATOM     16  C   UNL     1       3.201   5.511  -3.930  0.00  0.00    +0.160 C 
BRANCH  16  17
ATOM     17  C   UNL     1       4.292   6.075  -3.081  0.00  0.00    +0.105 C 
BRANCH  17  18
ATOM     18  N   UNL     1       4.104   5.900  -1.672  0.00  0.00    -0.268 NA
ATOM     19  C   UNL     1       3.681   4.581  -1.282  0.00  0.00    +0.090 C 
ATOM     20  C   UNL     1       3.239   6.933  -1.172  0.00  0.00    +0.090 C 
ENDBRANCH  17  18
ENDBRANCH  16  17
ENDBRANCH  15  16
ENDBRANCH   1  15
TORSDOF 6
ENDMDL
MODEL 8
REMARK VINA RESULT:      -6.1      3.201      5.768
REMARK  Name = 
REMARK  6 active torsions:
REMARK  status: ('A' for Active; 'I' for Inactive)
REMARK    1  A    between atoms: C_7  and  C_8
REMARK    2  A    between atoms: C_8  and  O_9
REMARK    3  A    between atoms: C_8  and  C_15
REMARK    4  A    between atoms: O_9  and  C_10
REMARK    5  A    between atoms: C_10  and  C_11
REMARK    6  A    between atoms: C_11  and  N_12
REMARK                            x       y       z     vdW  Elec       q    Type
REMARK                         _______ _______ _______ _____ _____    ______ ____
ROOT
ATOM      1  C   UNL     1       3.452   6.616 -10.268  0.00  0.00    +0.159 C 
ENDROOT
BRANCH   1   4
ATOM      2  C   UNL     1       2.120   7.824  -8.133  0.00  0.00    +0.031 C 
ATOM      3  C   UNL     1       3.017   6.819  -7.812  0.00  0.00    -0.023 A 
ATOM      4  C   UNL     1       3.638   5.990  -8.740  0.00  0.00    +0.005 A 
ATOM      5  C   UNL     1       4.884   5.525  -8.464  0.00  0.00    -0.002 A 
ATOM      6  C   UNL     1       5.079   5.075  -7.163  0.00  0.00    -0.000 A 
ATOM      7  C   UNL     1       4.436   5.779  -6.154  0.00  0.00    -0.000 A 
ATOM      8  C   UNL     1       3.437   6.666  -6.496  0.00  0.00    -0.004 A 
ENDBRANCH   1   4
BRANCH   1   9
ATOM      9  C   UNL     1       5.066   6.454 -10.614  0.00  0.00    +0.009 A 
ATOM     10  C   UNL     1       5.581   7.713 -10.827  0.00  0.00    -0.002 A 
ATOM     11  C   UNL     1       6.740   7.839 -11.561  0.00  0.00    -0.000 A 
ATOM     12  C   UNL     1       7.210   6.769 -12.275  0.00  0.00    -0.000 A 
ATOM     13  C   UNL     1       6.719   5.528 -11.946  0.00  0.00    -0.000 A 
ATOM     14  C   UNL     1       5.453   5.435 -11.383  0.00  0.00    -0.002 A 
ENDBRANCH   1   9
BRANCH   1  15
ATOM     15  O   UNL     1       3.039   5.231 -10.864  0.00  0.00    -0.346 OA
BRANCH  15  16
ATOM     16  C   UNL     1       2.117   5.593 -11.829  0.00  0.00    +0.160 C 
BRANCH  16  17
ATOM     17  C   UNL     1       0.894   6.240 -11.269  0.00  0.00    +0.105 C 
BRANCH  17  18
ATOM     18  N   UNL     1       0.043   6.854 -12.244  0.00  0.00    -0.268 NA
ATOM     19  C   UNL     1       0.736   7.453 -13.354  0.00  0.00    +0.090 C 
ATOM     20  C   UNL     1      -0.854   7.766 -11.590  0.00  0.00    +0.090 C 
ENDBRANCH  17  18
ENDBRANCH  16  17
ENDBRANCH  15  16
ENDBRANCH   1  15
TORSDOF 6
ENDMDL
MODEL 9
REMARK VINA RESULT:      -6.1      3.084      5.180
REMARK  Name = 
REMARK  6 active torsions:
REMARK  status: ('A' for Active; 'I' for Inactive)
REMARK    1  A    between atoms: C_7  and  C_8
REMARK    2  A    between atoms: C_8  and  O_9
REMARK    3  A    between atoms: C_8  and  C_15
REMARK    4  A    between atoms: O_9  and  C_10
REMARK    5  A    between atoms: C_10  and  C_11
REMARK    6  A    between atoms: C_11  and  N_12
REMARK                            x       y       z     vdW  Elec       q    Type
REMARK                         _______ _______ _______ _____ _____    ______ ____
ROOT
ATOM      1  C   UNL     1       3.427   6.590 -11.036  0.00  0.00    +0.159 C 
ENDROOT
BRANCH   1   4
ATOM      2  C   UNL     1       0.672   6.172 -10.888  0.00  0.00    +0.031 C 
ATOM      3  C   UNL     1       1.364   6.151  -9.689  0.00  0.00    -0.023 A 
ATOM      4  C   UNL     1       2.751   6.164  -9.580  0.00  0.00    +0.005 A 
ATOM      5  C   UNL     1       3.311   6.762  -8.496  0.00  0.00    -0.002 A 
ATOM      6  C   UNL     1       2.702   6.481  -7.278  0.00  0.00    -0.000 A 
ATOM      7  C   UNL     1       1.319   6.362  -7.282  0.00  0.00    -0.000 A 
ATOM      8  C   UNL     1       0.667   6.231  -8.490  0.00  0.00    -0.004 A 
ENDBRANCH   1   4
BRANCH   1   9
ATOM      9  C   UNL     1       4.933   6.786 -10.367  0.00  0.00    +0.009 A 
ATOM     10  C   UNL     1       5.589   7.762 -11.082  0.00  0.00    -0.002 A 
ATOM     11  C   UNL     1       6.965   7.799 -11.044  0.00  0.00    -0.000 A 
ATOM     12  C   UNL     1       7.657   6.737 -10.527  0.00  0.00    -0.000 A 
ATOM     13  C   UNL     1       6.957   5.850  -9.745  0.00  0.00    -0.000 A 
ATOM     14  C   UNL     1       5.592   5.703  -9.956  0.00  0.00    -0.002 A 
ENDBRANCH   1   9
BRANCH   1  15
ATOM     15  O   UNL     1       3.651   5.099 -11.452  0.00  0.00    -0.346 OA
BRANCH  15  16
ATOM     16  C   UNL     1       3.736   5.190 -12.828  0.00  0.00    +0.160 C 
BRANCH  16  17
ATOM     17  C   UNL     1       2.782   6.175 -13.420  0.00  0.00    +0.105 C 
BRANCH  17  18
ATOM     18  N   UNL     1       1.961   5.656 -14.470  0.00  0.00    -0.268 NA
ATOM     19  C   UNL     1       0.970   6.573 -14.969  0.00  0.00    +0.090 C 
ATOM     20  C   UNL     1       1.400   4.398 -14.062  0.00  0.00    +0.090 C 
ENDBRANCH  17  18
ENDBRANCH  16  17
ENDBRANCH  15  16
ENDBRANCH   1  15
TORSDOF 6
ENDMDL
