MODEL 1
REMARK VINA RESULT:     -10.3      0.000      0.000
REMARK  Name = 
REMARK  6 active torsions:
REMARK  status: ('A' for Active; 'I' for Inactive)
REMARK    1  A    between atoms: C_7  and  C_8
REMARK    2  A    between atoms: C_8  and  S_9
REMARK    3  A    between atoms: C_16  and  C_17
REMARK    4  A    between atoms: C_20  and  C_21
REMARK    5  A    between atoms: C_25  and  C_26
REMARK    6  A    between atoms: C_26  and  S_27
REMARK                            x       y       z     vdW  Elec       q    Type
REMARK                         _______ _______ _______ _____ _____    ______ ____
ROOT
ATOM      1  C   UNL     1       1.728   5.736  -7.025  0.00  0.00    -0.000 A 
ATOM      2  C   UNL     1       2.341   4.504  -7.624  0.00  0.00    -0.000 A 
ATOM      3  C   UNL     1       2.626   4.448  -9.096  0.00  0.00    -0.000 A 
ATOM      4  C   UNL     1       2.298   5.621  -9.969  0.00  0.00    -0.000 A 
ATOM      5  C   UNL     1       1.685   6.853  -9.371  0.00  0.00    -0.000 A 
ATOM      6  C   UNL     1       1.400   6.910  -7.899  0.00  0.00    -0.000 A 
ENDROOT
BRANCH   1  12
ATOM      7  C   UNL     1       1.753   6.040  -4.610  0.00  0.00    +0.001 C 
ATOM      8  C   UNL     1       2.901   6.623  -3.838  0.00  0.00    +0.012 C 
ATOM      9  C   UNL     1       3.594   7.070  -2.585  0.00  0.00    +0.075 C 
ATOM     10  C   UNL     1       2.331   6.466  -3.124  0.00  0.00    +0.170 C 
ATOM     11  C   UNL     1       2.472   6.346  -4.612  0.00  0.00    +0.012 C 
ATOM     12  C   UNL     1       1.443   5.793  -5.553  0.00  0.00    -0.001 C 
ATOM     13  O   UNL     1       1.135   6.055  -2.316  0.00  0.00    -0.292 OA
ATOM     14  C   UNL     1       4.944   7.600  -2.967  0.00  0.00    +0.009 C 
ATOM     15  C   UNL     1       5.086   7.480  -4.455  0.00  0.00    +0.005 C 
ATOM     16  C   UNL     1       3.823   6.876  -4.993  0.00  0.00    +0.026 C 
ATOM     17  C   UNL     1       1.621   6.153  -3.212  0.00  0.00    +0.001 C 
BRANCH   9  18
ATOM     18  C   UNL     1       3.034   7.001  -1.195  0.00  0.00    +0.133 C 
BRANCH  18  19
ATOM     19  S   UNL     1       3.952   6.800  -0.026  0.00  0.00    -0.107 S 
ATOM     20  O   UNL     1       4.870   6.601   1.144  0.00  0.00    -0.291 OA
ATOM     21  O   UNL     1       3.865   8.264   0.292  0.00  0.00    -0.371 OA
ATOM     22  O   UNL     1       4.039   5.337  -0.345  0.00  0.00    -0.371 OA
ENDBRANCH  18  19
ENDBRANCH   9  18
ENDBRANCH   1  12
BRANCH   4  23
ATOM     23  C   UNL     1       2.583   5.564 -11.441  0.00  0.00    -0.001 C 
ATOM     24  C   UNL     1       3.932   5.963 -11.960  0.00  0.00    +0.012 C 
ATOM     25  C   UNL     1       5.090   6.438 -11.132  0.00  0.00    +0.026 C 
ATOM     26  C   UNL     1       4.640   6.142 -12.532  0.00  0.00    +0.012 C 
ATOM     27  C   UNL     1       5.784   6.430 -13.457  0.00  0.00    +0.075 C 
ATOM     28  C   UNL     1       6.942   6.904 -12.630  0.00  0.00    +0.009 C 
ATOM     29  C   UNL     1       3.644   5.700 -13.562  0.00  0.00    +0.001 C 
ATOM     30  C   UNL     1       3.240   5.705 -12.213  0.00  0.00    +0.001 C 
ATOM     31  C   UNL     1       6.513   6.910 -11.193  0.00  0.00    +0.005 C 
ATOM     32  C   UNL     1       4.361   5.958 -13.396  0.00  0.00    +0.170 C 
ATOM     33  O   UNL     1       3.516   5.553 -14.568  0.00  0.00    -0.292 OA
BRANCH  27  34
ATOM     34  C   UNL     1       5.773   6.271 -14.949  0.00  0.00    +0.133 C 
BRANCH  34  35
ATOM     35  S   UNL     1       6.638   7.149 -15.804  0.00  0.00    -0.107 S 
ATOM     36  O   UNL     1       7.505   8.026 -16.659  0.00  0.00    -0.291 OA
ATOM     37  O   UNL     1       7.442   5.951 -16.218  0.00  0.00    -0.371 OA
ATOM     38  O   UNL     1       5.835   8.345 -15.389  0.00  0.00    -0.371 OA
ENDBRANCH  34  35
ENDBRANCH  27  34
ENDBRANCH   4  23
TORSDOF 6
ENDMDL
MODEL 2
REMARK VINA RESULT:     -10.3      0.093      1.290
REMARK  Name = 
REMARK  6 active torsions:
REMARK  status: ('A' for Active; 'I' for Inactive)
REMARK    1  A    between atoms: C_7  and  C_8
REMARK    2  A    between atoms: C_8  and  S_9
REMARK    3  A    between atoms: C_16  and  C_17
REMARK    4  A    between atoms: C_20  and  C_21
REMARK    5  A    between atoms: C_25  and  C_26
REMARK    6  A    between atoms: C_26  and  S_27
REMARK                            x       y       z     vdW  Elec       q    Type
REMARK                         _______ _______ _______ _____ _____    ______ ____
ROOT
ATOM      1  C   UNL     1       1.779   5.731  -6.971  0.00  0.00    -0.000 A 
ATOM      2  C   UNL     1       1.492   6.928  -7.830  0.00  0.00    -0.000 A 
ATOM      3  C   UNL     1       1.761   6.874  -9.305  0.00  0.00    -0.000 A 
ATOM      4  C   UNL     1       2.316   5.625  -9.921  0.00  0.00    -0.000 A 
ATOM      5  C   UNL     1       2.602   4.428  -9.063  0.00  0.00    -0.000 A 
ATOM      6  C   UNL     1       2.334   4.482  -7.588  0.00  0.00    -0.000 A 
ENDROOT
BRANCH   1  12
ATOM      7  C   UNL     1       1.826   6.039  -4.556  0.00  0.00    +0.001 C 
ATOM      8  C   UNL     1       2.970   6.647  -3.799  0.00  0.00    +0.012 C 
ATOM      9  C   UNL     1       3.668   7.111  -2.555  0.00  0.00    +0.075 C 
ATOM     10  C   UNL     1       2.412   6.480  -3.078  0.00  0.00    +0.170 C 
ATOM     11  C   UNL     1       2.538   6.361  -4.567  0.00  0.00    +0.012 C 
ATOM     12  C   UNL     1       1.511   5.785  -5.496  0.00  0.00    -0.001 C 
ATOM     13  O   UNL     1       1.236   6.044  -2.255  0.00  0.00    -0.292 OA
ATOM     14  C   UNL     1       5.003   7.669  -2.954  0.00  0.00    +0.009 C 
ATOM     15  C   UNL     1       5.129   7.550  -4.443  0.00  0.00    +0.005 C 
ATOM     16  C   UNL     1       3.873   6.918  -4.966  0.00  0.00    +0.026 C 
ATOM     17  C   UNL     1       1.708   6.152  -3.157  0.00  0.00    +0.001 C 
BRANCH   9  18
ATOM     18  C   UNL     1       3.127   7.032  -1.158  0.00  0.00    +0.133 C 
BRANCH  18  19
ATOM     19  S   UNL     1       4.067   6.926   0.006  0.00  0.00    -0.107 S 
ATOM     20  O   UNL     1       5.008   6.818   1.170  0.00  0.00    -0.291 OA
ATOM     21  O   UNL     1       4.215   5.455  -0.249  0.00  0.00    -0.371 OA
ATOM     22  O   UNL     1       3.918   8.396   0.260  0.00  0.00    -0.371 OA
ENDBRANCH  18  19
ENDBRANCH   9  18
ENDBRANCH   1  12
BRANCH   4  23
ATOM     23  C   UNL     1       2.584   5.571 -11.397  0.00  0.00    -0.001 C 
ATOM     24  C   UNL     1       3.928   5.970 -11.929  0.00  0.00    +0.012 C 
ATOM     25  C   UNL     1       5.096   6.441 -11.113  0.00  0.00    +0.026 C 
ATOM     26  C   UNL     1       4.630   6.149 -12.508  0.00  0.00    +0.012 C 
ATOM     27  C   UNL     1       5.764   6.438 -13.445  0.00  0.00    +0.075 C 
ATOM     28  C   UNL     1       6.932   6.908 -12.629  0.00  0.00    +0.009 C 
ATOM     29  C   UNL     1       3.621   5.712 -13.529  0.00  0.00    +0.001 C 
ATOM     30  C   UNL     1       3.233   5.713 -12.175  0.00  0.00    +0.001 C 
ATOM     31  C   UNL     1       6.519   6.910 -11.188  0.00  0.00    +0.005 C 
ATOM     32  C   UNL     1       4.341   5.969 -13.370  0.00  0.00    +0.170 C 
ATOM     33  O   UNL     1       3.482   5.568 -14.533  0.00  0.00    -0.292 OA
BRANCH  27  34
ATOM     34  C   UNL     1       5.736   6.284 -14.938  0.00  0.00    +0.133 C 
BRANCH  34  35
ATOM     35  S   UNL     1       6.606   7.152 -15.798  0.00  0.00    -0.107 S 
ATOM     36  O   UNL     1       7.475   8.020 -16.659  0.00  0.00    -0.291 OA
ATOM     37  O   UNL     1       5.791   8.351 -15.411  0.00  0.00    -0.371 OA
ATOM     38  O   UNL     1       7.420   5.952 -16.185  0.00  0.00    -0.371 OA
ENDBRANCH  34  35
ENDBRANCH  27  34
ENDBRANCH   4  23
TORSDOF 6
ENDMDL
MODEL 3
REMARK VINA RESULT:     -10.3      0.032     10.856
REMARK  Name = 
REMARK  6 active torsions:
REMARK  status: ('A' for Active; 'I' for Inactive)
REMARK    1  A    between atoms: C_7  and  C_8
REMARK    2  A    between atoms: C_8  and  S_9
REMARK    3  A    between atoms: C_16  and  C_17
REMARK    4  A    between atoms: C_20  and  C_21
REMARK    5  A    between atoms: C_25  and  C_26
REMARK    6  A    between atoms: C_26  and  S_27
REMARK                            x       y       z     vdW  Elec       q    Type
REMARK                         _______ _______ _______ _____ _____    ______ ____
ROOT
ATOM      1  C   UNL     1       2.285   5.645  -9.987  0.00  0.00    -0.000 A 
ATOM      2  C   UNL     1       2.586   4.460  -9.117  0.00  0.00    -0.000 A 
ATOM      3  C   UNL     1       2.300   4.519  -7.646  0.00  0.00    -0.000 A 
ATOM      4  C   UNL     1       1.714   5.761  -7.044  0.00  0.00    -0.000 A 
ATOM      5  C   UNL     1       1.413   6.946  -7.914  0.00  0.00    -0.000 A 
ATOM      6  C   UNL     1       1.699   6.887  -9.385  0.00  0.00    -0.000 A 
ENDROOT
BRANCH   1  12
ATOM      7  C   UNL     1       3.232   5.717 -12.229  0.00  0.00    +0.001 C 
ATOM      8  C   UNL     1       4.641   6.127 -12.545  0.00  0.00    +0.012 C 
ATOM      9  C   UNL     1       5.793   6.396 -13.467  0.00  0.00    +0.075 C 
ATOM     10  C   UNL     1       4.360   5.953 -13.410  0.00  0.00    +0.170 C 
ATOM     11  C   UNL     1       3.929   5.961 -11.974  0.00  0.00    +0.012 C 
ATOM     12  C   UNL     1       2.571   5.587 -11.459  0.00  0.00    -0.001 C 
ATOM     13  O   UNL     1       3.509   5.568 -14.584  0.00  0.00    -0.292 OA
ATOM     14  C   UNL     1       6.958   6.844 -12.636  0.00  0.00    +0.009 C 
ATOM     15  C   UNL     1       6.527   6.853 -11.200  0.00  0.00    +0.005 C 
ATOM     16  C   UNL     1       5.095   6.410 -11.143  0.00  0.00    +0.026 C 
ATOM     17  C   UNL     1       3.638   5.709 -13.578  0.00  0.00    +0.001 C 
BRANCH   9  18
ATOM     18  C   UNL     1       5.780   6.242 -14.960  0.00  0.00    +0.133 C 
BRANCH  18  19
ATOM     19  S   UNL     1       6.648   7.121 -15.811  0.00  0.00    -0.107 S 
ATOM     20  O   UNL     1       7.517   7.999 -16.663  0.00  0.00    -0.291 OA
ATOM     21  O   UNL     1       7.434   5.919 -16.247  0.00  0.00    -0.371 OA
ATOM     22  O   UNL     1       5.862   8.321 -15.375  0.00  0.00    -0.371 OA
ENDBRANCH  18  19
ENDBRANCH   9  18
ENDBRANCH   1  12
BRANCH   4  23
ATOM     23  C   UNL     1       1.428   5.818  -5.572  0.00  0.00    -0.001 C 
ATOM     24  C   UNL     1       2.461   6.360  -4.629  0.00  0.00    +0.012 C 
ATOM     25  C   UNL     1       3.817   6.877  -5.008  0.00  0.00    +0.026 C 
ATOM     26  C   UNL     1       2.891   6.631  -3.854  0.00  0.00    +0.012 C 
ATOM     27  C   UNL     1       3.587   7.071  -2.600  0.00  0.00    +0.075 C 
ATOM     28  C   UNL     1       4.943   7.588  -2.979  0.00  0.00    +0.009 C 
ATOM     29  C   UNL     1       1.607   6.173  -3.230  0.00  0.00    +0.001 C 
ATOM     30  C   UNL     1       1.739   6.061  -4.628  0.00  0.00    +0.001 C 
ATOM     31  C   UNL     1       5.085   7.468  -4.467  0.00  0.00    +0.005 C 
ATOM     32  C   UNL     1       2.319   6.479  -3.141  0.00  0.00    +0.170 C 
ATOM     33  O   UNL     1       1.119   6.078  -2.334  0.00  0.00    -0.292 OA
BRANCH  27  34
ATOM     34  C   UNL     1       3.026   7.004  -1.210  0.00  0.00    +0.133 C 
BRANCH  34  35
ATOM     35  S   UNL     1       3.941   6.796  -0.040  0.00  0.00    -0.107 S 
ATOM     36  O   UNL     1       4.856   6.588   1.130  0.00  0.00    -0.291 OA
ATOM     37  O   UNL     1       3.874   8.262   0.272  0.00  0.00    -0.371 OA
ATOM     38  O   UNL     1       4.007   5.330  -0.353  0.00  0.00    -0.371 OA
ENDBRANCH  34  35
ENDBRANCH  27  34
ENDBRANCH   4  23
TORSDOF 6
ENDMDL
MODEL 4
REMARK VINA RESULT:     -10.2      2.559      3.687
REMARK  Name = 
REMARK  6 active torsions:
REMARK  status: ('A' for Active; 'I' for Inactive)
REMARK    1  A    between atoms: C_7  and  C_8
REMARK    2  A    between atoms: C_8  and  S_9
REMARK    3  A    between atoms: C_16  and  C_17
REMARK    4  A    between atoms: C_20  and  C_21
REMARK    5  A    between atoms: C_25  and  C_26
REMARK    6  A    between atoms: C_26  and  S_27
REMARK                            x       y       z     vdW  Elec       q    Type
REMARK                         _______ _______ _______ _____ _____    ______ ____
ROOT
ATOM      1  C   UNL     1       2.049   5.658  -5.022  0.00  0.00    -0.000 A 
ATOM      2  C   UNL     1       2.346   6.931  -5.760  0.00  0.00    -0.000 A 
ATOM      3  C   UNL     1       2.507   6.912  -7.251  0.00  0.00    -0.000 A 
ATOM      4  C   UNL     1       2.372   5.623  -8.005  0.00  0.00    -0.000 A 
ATOM      5  C   UNL     1       2.075   4.351  -7.266  0.00  0.00    -0.000 A 
ATOM      6  C   UNL     1       1.914   4.369  -5.775  0.00  0.00    -0.000 A 
ENDROOT
BRANCH   1  12
ATOM      7  C   UNL     1       1.294   5.848  -2.715  0.00  0.00    +0.001 C 
ATOM      8  C   UNL     1      -0.084   6.279  -2.303  0.00  0.00    +0.012 C 
ATOM      9  C   UNL     1      -1.154   6.599  -1.302  0.00  0.00    +0.075 C 
ATOM     10  C   UNL     1       0.269   6.147  -1.457  0.00  0.00    +0.170 C 
ATOM     11  C   UNL     1       0.578   6.082  -2.922  0.00  0.00    +0.012 C 
ATOM     12  C   UNL     1       1.888   5.676  -3.530  0.00  0.00    -0.001 C 
ATOM     13  O   UNL     1       1.216   5.818  -0.340  0.00  0.00    -0.292 OA
ATOM     14  C   UNL     1      -2.385   7.010  -2.054  0.00  0.00    +0.009 C 
ATOM     15  C   UNL     1      -2.076   6.945  -3.520  0.00  0.00    +0.005 C 
ATOM     16  C   UNL     1      -0.653   6.493  -3.674  0.00  0.00    +0.026 C 
ATOM     17  C   UNL     1       1.003   5.909  -1.338  0.00  0.00    +0.001 C 
BRANCH   9  18
ATOM     18  C   UNL     1      -1.016   6.521   0.190  0.00  0.00    +0.133 C 
BRANCH  18  19
ATOM     19  S   UNL     1      -1.774   7.475   1.064  0.00  0.00    -0.107 S 
ATOM     20  O   UNL     1      -2.533   8.429   1.939  0.00  0.00    -0.291 OA
ATOM     21  O   UNL     1      -2.379   6.317   1.802  0.00  0.00    -0.371 OA
ATOM     22  O   UNL     1      -1.169   8.632   0.326  0.00  0.00    -0.371 OA
ENDBRANCH  18  19
ENDBRANCH   9  18
ENDBRANCH   1  12
BRANCH   4  23
ATOM     23  C   UNL     1       2.533   5.606  -9.496  0.00  0.00    -0.001 C 
ATOM     24  C   UNL     1       3.904   5.659 -10.102  0.00  0.00    +0.012 C 
ATOM     25  C   UNL     1       5.199   5.731  -9.349  0.00  0.00    +0.026 C 
ATOM     26  C   UNL     1       4.594   5.680 -10.721  0.00  0.00    +0.012 C 
ATOM     27  C   UNL     1       5.711   5.715 -11.721  0.00  0.00    +0.075 C 
ATOM     28  C   UNL     1       7.006   5.788 -10.968  0.00  0.00    +0.009 C 
ATOM     29  C   UNL     1       3.449   5.611 -11.687  0.00  0.00    +0.001 C 
ATOM     30  C   UNL     1       3.152   5.621 -10.311  0.00  0.00    +0.001 C 
ATOM     31  C   UNL     1       6.690   5.798  -9.503  0.00  0.00    +0.005 C 
ATOM     32  C   UNL     1       4.220   5.649 -11.568  0.00  0.00    +0.170 C 
ATOM     33  O   UNL     1       3.221   5.584 -12.685  0.00  0.00    -0.292 OA
BRANCH  27  34
ATOM     34  C   UNL     1       5.559   5.683 -13.214  0.00  0.00    +0.133 C 
BRANCH  34  35
ATOM     35  S   UNL     1       6.658   6.204 -14.091  0.00  0.00    -0.107 S 
ATOM     36  O   UNL     1       7.758   6.725 -14.969  0.00  0.00    -0.291 OA
ATOM     37  O   UNL     1       6.015   7.559 -14.091  0.00  0.00    -0.371 OA
ATOM     38  O   UNL     1       7.301   4.848 -14.090  0.00  0.00    -0.371 OA
ENDBRANCH  34  35
ENDBRANCH  27  34
ENDBRANCH   4  23
TORSDOF 6
ENDMDL
MODEL 5
REMARK VINA RESULT:     -10.1      2.872     11.689
REMARK  Name = 
REMARK  6 active torsions:
REMARK  status: ('A' for Active; 'I' for Inactive)
REMARK    1  A    between atoms: C_7  and  C_8
REMARK    2  A    between atoms: C_8  and  S_9
REMARK    3  A    between atoms: C_16  and  C_17
REMARK    4  A    between atoms: C_20  and  C_21
REMARK    5  A    between atoms: C_25  and  C_26
REMARK    6  A    between atoms: C_26  and  S_27
REMARK                            x       y       z     vdW  Elec       q    Type
REMARK                         _______ _______ _______ _____ _____    ______ ____
ROOT
ATOM      1  C   UNL     1       3.048   5.473  -8.097  0.00  0.00    -0.000 A 
ATOM      2  C   UNL     1       3.377   6.677  -7.264  0.00  0.00    -0.000 A 
ATOM      3  C   UNL     1       3.091   6.670  -5.791  0.00  0.00    -0.000 A 
ATOM      4  C   UNL     1       2.478   5.461  -5.151  0.00  0.00    -0.000 A 
ATOM      5  C   UNL     1       2.149   4.257  -5.984  0.00  0.00    -0.000 A 
ATOM      6  C   UNL     1       2.434   4.264  -7.457  0.00  0.00    -0.000 A 
ENDROOT
BRANCH   1  12
ATOM      7  C   UNL     1       3.023   5.692 -10.521  0.00  0.00    +0.001 C 
ATOM      8  C   UNL     1       1.875   6.246 -11.314  0.00  0.00    +0.012 C 
ATOM      9  C   UNL     1       1.182   6.649 -12.581  0.00  0.00    +0.075 C 
ATOM     10  C   UNL     1       2.446   6.066 -12.021  0.00  0.00    +0.170 C 
ATOM     11  C   UNL     1       2.304   5.997 -10.530  0.00  0.00    +0.012 C 
ATOM     12  C   UNL     1       3.333   5.479  -9.570  0.00  0.00    -0.001 C 
ATOM     13  O   UNL     1       3.642   5.627 -12.815  0.00  0.00    -0.292 OA
ATOM     14  C   UNL     1      -0.169   7.191 -12.219  0.00  0.00    +0.009 C 
ATOM     15  C   UNL     1      -0.311   7.122 -10.728  0.00  0.00    +0.005 C 
ATOM     16  C   UNL     1       0.953   6.539 -10.168  0.00  0.00    +0.026 C 
ATOM     17  C   UNL     1       3.156   5.756 -11.922  0.00  0.00    +0.001 C 
BRANCH   9  18
ATOM     18  C   UNL     1       1.742   6.531 -13.968  0.00  0.00    +0.133 C 
BRANCH  18  19
ATOM     19  S   UNL     1       0.824   6.570 -15.154  0.00  0.00    -0.107 S 
ATOM     20  O   UNL     1      -0.094   6.607 -16.339  0.00  0.00    -0.291 OA
ATOM     21  O   UNL     1       0.532   5.109 -14.974  0.00  0.00    -0.371 OA
ATOM     22  O   UNL     1       1.117   8.030 -15.333  0.00  0.00    -0.371 OA
ENDBRANCH  18  19
ENDBRANCH   9  18
ENDBRANCH   1  12
BRANCH   4  23
ATOM     23  C   UNL     1       2.193   5.454  -3.678  0.00  0.00    -0.001 C 
ATOM     24  C   UNL     1       0.871   5.947  -3.168  0.00  0.00    +0.012 C 
ATOM     25  C   UNL     1      -0.257   6.473  -4.006  0.00  0.00    +0.026 C 
ATOM     26  C   UNL     1       0.176   6.181  -2.600  0.00  0.00    +0.012 C 
ATOM     27  C   UNL     1      -0.947   6.560  -1.681  0.00  0.00    +0.075 C 
ATOM     28  C   UNL     1      -2.074   7.085  -2.519  0.00  0.00    +0.009 C 
ATOM     29  C   UNL     1       1.146   5.703  -1.560  0.00  0.00    +0.001 C 
ATOM     30  C   UNL     1       1.546   5.653  -2.910  0.00  0.00    +0.001 C 
ATOM     31  C   UNL     1      -1.649   7.031  -3.955  0.00  0.00    +0.005 C 
ATOM     32  C   UNL     1       0.445   6.001  -1.732  0.00  0.00    +0.170 C 
ATOM     33  O   UNL     1       1.266   5.572  -0.552  0.00  0.00    -0.292 OA
BRANCH  27  34
ATOM     34  C   UNL     1      -0.942   6.435  -0.186  0.00  0.00    +0.133 C 
BRANCH  34  35
ATOM     35  S   UNL     1      -1.701   7.421   0.652  0.00  0.00    -0.107 S 
ATOM     36  O   UNL     1      -2.460   8.407   1.490  0.00  0.00    -0.291 OA
ATOM     37  O   UNL     1      -2.395   6.291   1.352  0.00  0.00    -0.371 OA
ATOM     38  O   UNL     1      -1.006   8.551  -0.049  0.00  0.00    -0.371 OA
ENDBRANCH  34  35
ENDBRANCH  27  34
ENDBRANCH   4  23
TORSDOF 6
ENDMDL
MODEL 6
REMARK VINA RESULT:     -10.1      2.915      4.489
REMARK  Name = 
REMARK  6 active torsions:
REMARK  status: ('A' for Active; 'I' for Inactive)
REMARK    1  A    between atoms: C_7  and  C_8
REMARK    2  A    between atoms: C_8  and  S_9
REMARK    3  A    between atoms: C_16  and  C_17
REMARK    4  A    between atoms: C_20  and  C_21
REMARK    5  A    between atoms: C_25  and  C_26
REMARK    6  A    between atoms: C_26  and  S_27
REMARK                            x       y       z     vdW  Elec       q    Type
REMARK                         _______ _______ _______ _____ _____    ______ ____
ROOT
ATOM      1  C   UNL     1       2.339   5.453  -5.147  0.00  0.00    -0.000 A 
ATOM      2  C   UNL     1       2.928   6.681  -5.778  0.00  0.00    -0.000 A 
ATOM      3  C   UNL     1       3.236   6.696  -7.246  0.00  0.00    -0.000 A 
ATOM      4  C   UNL     1       2.954   5.485  -8.084  0.00  0.00    -0.000 A 
ATOM      5  C   UNL     1       2.364   4.257  -7.454  0.00  0.00    -0.000 A 
ATOM      6  C   UNL     1       2.057   4.242  -5.986  0.00  0.00    -0.000 A 
ENDROOT
BRANCH   1  12
ATOM      7  C   UNL     1       1.372   5.627  -2.920  0.00  0.00    +0.001 C 
ATOM      8  C   UNL     1      -0.007   6.145  -2.629  0.00  0.00    +0.012 C 
ATOM      9  C   UNL     1      -1.146   6.511  -1.725  0.00  0.00    +0.075 C 
ATOM     10  C   UNL     1       0.250   5.962  -1.757  0.00  0.00    +0.170 C 
ATOM     11  C   UNL     1       0.698   5.919  -3.187  0.00  0.00    +0.012 C 
ATOM     12  C   UNL     1       2.031   5.438  -3.679  0.00  0.00    -0.001 C 
ATOM     13  O   UNL     1       1.056   5.532  -0.567  0.00  0.00    -0.292 OA
ATOM     14  C   UNL     1      -2.265   7.033  -2.578  0.00  0.00    +0.009 C 
ATOM     15  C   UNL     1      -1.816   6.990  -4.008  0.00  0.00    +0.005 C 
ATOM     16  C   UNL     1      -0.421   6.441  -4.040  0.00  0.00    +0.026 C 
ATOM     17  C   UNL     1       0.950   5.668  -1.577  0.00  0.00    +0.001 C 
BRANCH   9  18
ATOM     18  C   UNL     1      -1.164   6.378  -0.231  0.00  0.00    +0.133 C 
BRANCH  18  19
ATOM     19  S   UNL     1      -1.833   7.427   0.607  0.00  0.00    -0.107 S 
ATOM     20  O   UNL     1      -2.501   8.477   1.446  0.00  0.00    -0.291 OA
ATOM     21  O   UNL     1      -1.307   8.493  -0.309  0.00  0.00    -0.371 OA
ATOM     22  O   UNL     1      -2.357   6.361   1.523  0.00  0.00    -0.371 OA
ENDBRANCH  18  19
ENDBRANCH   9  18
ENDBRANCH   1  12
BRANCH   4  23
ATOM     23  C   UNL     1       3.262   5.501  -9.552  0.00  0.00    -0.001 C 
ATOM     24  C   UNL     1       2.248   6.025 -10.525  0.00  0.00    +0.012 C 
ATOM     25  C   UNL     1       0.891   6.564 -10.180  0.00  0.00    +0.026 C 
ATOM     26  C   UNL     1       1.831   6.279 -11.314  0.00  0.00    +0.012 C 
ATOM     27  C   UNL     1       1.157   6.690 -12.589  0.00  0.00    +0.075 C 
ATOM     28  C   UNL     1      -0.200   7.229 -12.244  0.00  0.00    +0.009 C 
ATOM     29  C   UNL     1       3.121   5.793 -11.905  0.00  0.00    +0.001 C 
ATOM     30  C   UNL     1       2.967   5.720 -10.507  0.00  0.00    +0.001 C 
ATOM     31  C   UNL     1      -0.364   7.151 -10.756  0.00  0.00    +0.005 C 
ATOM     32  C   UNL     1       2.412   6.103 -12.013  0.00  0.00    +0.170 C 
ATOM     33  O   UNL     1       3.620   5.670 -12.791  0.00  0.00    -0.292 OA
BRANCH  27  34
ATOM     34  C   UNL     1       1.739   6.581 -13.968  0.00  0.00    +0.133 C 
BRANCH  34  35
ATOM     35  S   UNL     1       0.838   6.616 -15.167  0.00  0.00    -0.107 S 
ATOM     36  O   UNL     1      -0.063   6.651 -16.366  0.00  0.00    -0.291 OA
ATOM     37  O   UNL     1       0.545   5.156 -14.988  0.00  0.00    -0.371 OA
ATOM     38  O   UNL     1       1.132   8.077 -15.345  0.00  0.00    -0.371 OA
ENDBRANCH  34  35
ENDBRANCH  27  34
ENDBRANCH   4  23
TORSDOF 6
ENDMDL
MODEL 7
REMARK VINA RESULT:     -10.1      2.962      4.126
REMARK  Name = 
REMARK  6 active torsions:
REMARK  status: ('A' for Active; 'I' for Inactive)
REMARK    1  A    between atoms: C_7  and  C_8
REMARK    2  A    between atoms: C_8  and  S_9
REMARK    3  A    between atoms: C_16  and  C_17
REMARK    4  A    between atoms: C_20  and  C_21
REMARK    5  A    between atoms: C_25  and  C_26
REMARK    6  A    between atoms: C_26  and  S_27
REMARK                            x       y       z     vdW  Elec       q    Type
REMARK                         _______ _______ _______ _____ _____    ______ ____
ROOT
ATOM      1  C   UNL     1       1.250   5.653  -5.030  0.00  0.00    -0.000 A 
ATOM      2  C   UNL     1       2.005   6.918  -5.318  0.00  0.00    -0.000 A 
ATOM      3  C   UNL     1       3.229   6.879  -6.185  0.00  0.00    -0.000 A 
ATOM      4  C   UNL     1       3.698   5.577  -6.763  0.00  0.00    -0.000 A 
ATOM      5  C   UNL     1       2.943   4.313  -6.475  0.00  0.00    -0.000 A 
ATOM      6  C   UNL     1       1.719   4.352  -5.608  0.00  0.00    -0.000 A 
ENDROOT
BRANCH   1  12
ATOM      7  C   UNL     1      -0.390   5.844  -3.241  0.00  0.00    +0.001 C 
ATOM      8  C   UNL     1      -0.063   6.200  -1.820  0.00  0.00    +0.012 C 
ATOM      9  C   UNL     1      -0.404   6.475  -0.386  0.00  0.00    +0.075 C 
ATOM     10  C   UNL     1      -0.979   6.106  -1.722  0.00  0.00    +0.170 C 
ATOM     11  C   UNL     1       0.149   6.030  -2.707  0.00  0.00    +0.012 C 
ATOM     12  C   UNL     1       0.026   5.692  -4.163  0.00  0.00    -0.001 C 
ATOM     13  O   UNL     1      -2.429   5.858  -2.020  0.00  0.00    -0.292 OA
ATOM     14  C   UNL     1       0.868   6.796   0.340  0.00  0.00    +0.009 C 
ATOM     15  C   UNL     1       1.996   6.720  -0.645  0.00  0.00    +0.005 C 
ATOM     16  C   UNL     1       1.421   6.351  -1.980  0.00  0.00    +0.026 C 
ATOM     17  C   UNL     1      -1.449   5.916  -2.315  0.00  0.00    +0.001 C 
BRANCH   9  18
ATOM     18  C   UNL     1      -1.778   6.436   0.216  0.00  0.00    +0.133 C 
BRANCH  18  19
ATOM     19  S   UNL     1      -2.140   7.383   1.321  0.00  0.00    -0.107 S 
ATOM     20  O   UNL     1      -2.502   8.331   2.426  0.00  0.00    -0.291 OA
ATOM     21  O   UNL     1      -1.917   8.544   0.398  0.00  0.00    -0.371 OA
ATOM     22  O   UNL     1      -2.363   6.221   2.244  0.00  0.00    -0.371 OA
ENDBRANCH  18  19
ENDBRANCH   9  18
ENDBRANCH   1  12
BRANCH   4  23
ATOM     23  C   UNL     1       4.922   5.539  -7.630  0.00  0.00    -0.001 C 
ATOM     24  C   UNL     1       4.789   5.639  -9.121  0.00  0.00    +0.012 C 
ATOM     25  C   UNL     1       3.505   5.780  -9.883  0.00  0.00    +0.026 C 
ATOM     26  C   UNL     1       4.995   5.678 -10.024  0.00  0.00    +0.012 C 
ATOM     27  C   UNL     1       5.328   5.742 -11.485  0.00  0.00    +0.075 C 
ATOM     28  C   UNL     1       4.044   5.882 -12.247  0.00  0.00    +0.009 C 
ATOM     29  C   UNL     1       6.392   5.543  -9.496  0.00  0.00    +0.001 C 
ATOM     30  C   UNL     1       5.334   5.565  -8.566  0.00  0.00    +0.001 C 
ATOM     31  C   UNL     1       2.918   5.906 -11.258  0.00  0.00    +0.005 C 
ATOM     32  C   UNL     1       5.915   5.615 -10.110  0.00  0.00    +0.170 C 
ATOM     33  O   UNL     1       7.374   5.488  -9.782  0.00  0.00    -0.292 OA
BRANCH  27  34
ATOM     34  C   UNL     1       6.704   5.676 -12.078  0.00  0.00    +0.133 C 
BRANCH  34  35
ATOM     35  S   UNL     1       6.964   6.259 -13.436  0.00  0.00    -0.107 S 
ATOM     36  O   UNL     1       7.224   6.842 -14.793  0.00  0.00    -0.291 OA
ATOM     37  O   UNL     1       6.665   7.629 -12.904  0.00  0.00    -0.371 OA
ATOM     38  O   UNL     1       7.263   4.888 -13.967  0.00  0.00    -0.371 OA
ENDBRANCH  34  35
ENDBRANCH  27  34
ENDBRANCH   4  23
TORSDOF 6
ENDMDL
MODEL 8
REMARK VINA RESULT:     -10.1      2.704     11.550
REMARK  Name = 
REMARK  6 active torsions:
REMARK  status: ('A' for Active; 'I' for Inactive)
REMARK    1  A    between atoms: C_7  and  C_8
REMARK    2  A    between atoms: C_8  and  S_9
REMARK    3  A    between atoms: C_16  and  C_17
REMARK    4  A    between atoms: C_20  and  C_21
REMARK    5  A    between atoms: C_25  and  C_26
REMARK    6  A    between atoms: C_26  and  S_27
REMARK                            x       y       z     vdW  Elec       q    Type
REMARK                         _______ _______ _______ _____ _____    ______ ____
ROOT
ATOM      1  C   UNL     1       2.452   5.654  -7.708  0.00  0.00    -0.000 A 
ATOM      2  C   UNL     1       2.786   6.922  -6.978  0.00  0.00    -0.000 A 
ATOM      3  C   UNL     1       2.616   6.997  -5.489  0.00  0.00    -0.000 A 
ATOM      4  C   UNL     1       2.113   5.806  -4.730  0.00  0.00    -0.000 A 
ATOM      5  C   UNL     1       1.779   4.538  -5.460  0.00  0.00    -0.000 A 
ATOM      6  C   UNL     1       1.949   4.463  -6.949  0.00  0.00    -0.000 A 
ENDROOT
BRANCH   1  12
ATOM      7  C   UNL     1       3.246   5.542 -10.006  0.00  0.00    +0.001 C 
ATOM      8  C   UNL     1       4.693   5.536 -10.408  0.00  0.00    +0.012 C 
ATOM      9  C   UNL     1       5.816   5.496 -11.400  0.00  0.00    +0.075 C 
ATOM     10  C   UNL     1       4.323   5.488 -11.256  0.00  0.00    +0.170 C 
ATOM     11  C   UNL     1       3.998   5.561  -9.794  0.00  0.00    +0.012 C 
ATOM     12  C   UNL     1       2.622   5.578  -9.196  0.00  0.00    -0.001 C 
ATOM     13  O   UNL     1       3.329   5.420 -12.378  0.00  0.00    -0.292 OA
ATOM     14  C   UNL     1       7.108   5.549 -10.640  0.00  0.00    +0.009 C 
ATOM     15  C   UNL     1       6.783   5.622  -9.178  0.00  0.00    +0.005 C 
ATOM     16  C   UNL     1       5.290   5.614  -9.034  0.00  0.00    +0.026 C 
ATOM     17  C   UNL     1       3.552   5.474 -11.380  0.00  0.00    +0.001 C 
BRANCH   9  18
ATOM     18  C   UNL     1       5.672   5.417 -12.891  0.00  0.00    +0.133 C 
BRANCH  18  19
ATOM     19  S   UNL     1       6.704   6.047 -13.779  0.00  0.00    -0.107 S 
ATOM     20  O   UNL     1       7.736   6.678 -14.667  0.00  0.00    -0.291 OA
ATOM     21  O   UNL     1       5.910   7.320 -13.797  0.00  0.00    -0.371 OA
ATOM     22  O   UNL     1       7.497   4.774 -13.761  0.00  0.00    -0.371 OA
ENDBRANCH  18  19
ENDBRANCH   9  18
ENDBRANCH   1  12
BRANCH   4  23
ATOM     23  C   UNL     1       1.943   5.881  -3.241  0.00  0.00    -0.001 C 
ATOM     24  C   UNL     1       0.599   6.198  -2.656  0.00  0.00    +0.012 C 
ATOM     25  C   UNL     1      -0.660   6.461  -3.428  0.00  0.00    +0.026 C 
ATOM     26  C   UNL     1      -0.081   6.366  -2.047  0.00  0.00    +0.012 C 
ATOM     27  C   UNL     1      -1.180   6.638  -1.064  0.00  0.00    +0.075 C 
ATOM     28  C   UNL     1      -2.439   6.901  -1.836  0.00  0.00    +0.009 C 
ATOM     29  C   UNL     1       1.029   6.142  -1.064  0.00  0.00    +0.001 C 
ATOM     30  C   UNL     1       1.331   6.039  -2.436  0.00  0.00    +0.001 C 
ATOM     31  C   UNL     1      -2.118   6.792  -3.296  0.00  0.00    +0.005 C 
ATOM     32  C   UNL     1       0.278   6.307  -1.195  0.00  0.00    +0.170 C 
ATOM     33  O   UNL     1       1.244   6.119  -0.063  0.00  0.00    -0.292 OA
BRANCH  27  34
ATOM     34  C   UNL     1      -1.044   6.645   0.430  0.00  0.00    +0.133 C 
BRANCH  34  35
ATOM     35  S   UNL     1      -1.888   7.569   1.256  0.00  0.00    -0.107 S 
ATOM     36  O   UNL     1      -2.733   8.493   2.083  0.00  0.00    -0.291 OA
ATOM     37  O   UNL     1      -2.526   6.388   1.926  0.00  0.00    -0.371 OA
ATOM     38  O   UNL     1      -1.250   8.750   0.586  0.00  0.00    -0.371 OA
ENDBRANCH  34  35
ENDBRANCH  27  34
ENDBRANCH   4  23
TORSDOF 6
ENDMDL
MODEL 9
REMARK VINA RESULT:      -9.9      1.966      2.977
REMARK  Name = 
REMARK  6 active torsions:
REMARK  status: ('A' for Active; 'I' for Inactive)
REMARK    1  A    between atoms: C_7  and  C_8
REMARK    2  A    between atoms: C_8  and  S_9
REMARK    3  A    between atoms: C_16  and  C_17
REMARK    4  A    between atoms: C_20  and  C_21
REMARK    5  A    between atoms: C_25  and  C_26
REMARK    6  A    between atoms: C_26  and  S_27
REMARK                            x       y       z     vdW  Elec       q    Type
REMARK                         _______ _______ _______ _____ _____    ______ ____
ROOT
ATOM      1  C   UNL     1       2.720   5.509  -7.075  0.00  0.00    -0.000 A 
ATOM      2  C   UNL     1       2.806   4.247  -7.882  0.00  0.00    -0.000 A 
ATOM      3  C   UNL     1       2.942   4.319  -9.374  0.00  0.00    -0.000 A 
ATOM      4  C   UNL     1       2.993   5.651 -10.060  0.00  0.00    -0.000 A 
ATOM      5  C   UNL     1       2.908   6.913  -9.253  0.00  0.00    -0.000 A 
ATOM      6  C   UNL     1       2.771   6.841  -7.761  0.00  0.00    -0.000 A 
ENDROOT
BRANCH   1  12
ATOM      7  C   UNL     1       1.981   5.450  -4.756  0.00  0.00    +0.001 C 
ATOM      8  C   UNL     1       0.551   5.564  -4.316  0.00  0.00    +0.012 C 
ATOM      9  C   UNL     1      -0.546   5.614  -3.294  0.00  0.00    +0.075 C 
ATOM     10  C   UNL     1       0.937   5.479  -3.479  0.00  0.00    +0.170 C 
ATOM     11  C   UNL     1       1.228   5.534  -4.949  0.00  0.00    +0.012 C 
ATOM     12  C   UNL     1       2.584   5.438  -5.583  0.00  0.00    -0.001 C 
ATOM     13  O   UNL     1       1.951   5.319  -2.384  0.00  0.00    -0.292 OA
ATOM     14  C   UNL     1      -1.848   5.782  -4.019  0.00  0.00    +0.009 C 
ATOM     15  C   UNL     1      -1.557   5.836  -5.488  0.00  0.00    +0.005 C 
ATOM     16  C   UNL     1      -0.074   5.702  -5.673  0.00  0.00    +0.026 C 
ATOM     17  C   UNL     1       1.707   5.398  -3.376  0.00  0.00    +0.001 C 
BRANCH   9  18
ATOM     18  C   UNL     1      -0.370   5.512  -1.808  0.00  0.00    +0.133 C 
BRANCH  18  19
ATOM     19  S   UNL     1      -1.319   6.223  -0.890  0.00  0.00    -0.107 S 
ATOM     20  O   UNL     1      -2.268   6.935   0.029  0.00  0.00    -0.291 OA
ATOM     21  O   UNL     1      -0.301   7.304  -0.675  0.00  0.00    -0.371 OA
ATOM     22  O   UNL     1      -2.337   5.142  -1.105  0.00  0.00    -0.371 OA
ENDBRANCH  18  19
ENDBRANCH   9  18
ENDBRANCH   1  12
BRANCH   4  23
ATOM     23  C   UNL     1       3.129   5.722 -11.553  0.00  0.00    -0.001 C 
ATOM     24  C   UNL     1       4.485   5.879 -12.175  0.00  0.00    +0.012 C 
ATOM     25  C   UNL     1       5.788   5.978 -11.438  0.00  0.00    +0.026 C 
ATOM     26  C   UNL     1       5.163   5.970 -12.801  0.00  0.00    +0.012 C 
ATOM     27  C   UNL     1       6.259   6.117 -13.814  0.00  0.00    +0.075 C 
ATOM     28  C   UNL     1       7.561   6.216 -13.077  0.00  0.00    +0.009 C 
ATOM     29  C   UNL     1       4.006   5.894 -13.753  0.00  0.00    +0.001 C 
ATOM     30  C   UNL     1       3.732   5.813 -12.374  0.00  0.00    +0.001 C 
ATOM     31  C   UNL     1       7.270   6.130 -11.609  0.00  0.00    +0.005 C 
ATOM     32  C   UNL     1       4.776   5.965 -13.643  0.00  0.00    +0.170 C 
ATOM     33  O   UNL     1       3.762   5.908 -14.748  0.00  0.00    -0.292 OA
BRANCH  27  34
ATOM     34  C   UNL     1       6.083   6.157 -15.303  0.00  0.00    +0.133 C 
BRANCH  34  35
ATOM     35  S   UNL     1       6.872   7.132 -16.126  0.00  0.00    -0.107 S 
ATOM     36  O   UNL     1       7.661   8.108 -16.948  0.00  0.00    -0.291 OA
ATOM     37  O   UNL     1       6.228   8.271 -15.392  0.00  0.00    -0.371 OA
ATOM     38  O   UNL     1       7.515   5.993 -16.860  0.00  0.00    -0.371 OA
ENDBRANCH  34  35
ENDBRANCH  27  34
ENDBRANCH   4  23
TORSDOF 6
ENDMDL
