MODEL 1
REMARK VINA RESULT:      -9.5      0.000      0.000
REMARK  Name = 
REMARK  2 active torsions:
REMARK  status: ('A' for Active; 'I' for Inactive)
REMARK    1  A    between atoms: C_22  and  C_24
REMARK    2  A    between atoms: C_24  and  C_26
REMARK                            x       y       z     vdW  Elec       q    Type
REMARK                         _______ _______ _______ _____ _____    ______ ____
ROOT
ATOM      1  C   UNL     1       0.529   4.405  -5.635  0.00  0.00    +0.003 C 
ATOM      2  C   UNL     1       0.315   5.745  -5.925  0.00  0.00    +0.035 C 
ATOM      3  C   UNL     1      -0.622   6.264  -4.984  0.00  0.00    +0.180 C 
ATOM      4  O   UNL     1      -0.705   7.648  -4.923  0.00  0.00    -0.218 OA
ATOM      5  C   UNL     1       0.061   5.849  -3.674  0.00  0.00    +0.038 C 
ATOM      6  C   UNL     1       1.535   5.627  -4.006  0.00  0.00    +0.003 C 
ATOM      7  C   UNL     1       1.579   6.567  -5.316  0.00  0.00    +0.006 C 
ATOM      8  C   UNL     1       2.574   5.560  -6.246  0.00  0.00    +0.033 C 
ATOM      9  C   UNL     1       3.926   5.893  -5.422  0.00  0.00    +0.007 C 
ATOM     10  C   UNL     1       4.995   5.600  -6.391  0.00  0.00    +0.022 C 
ATOM     11  C   UNL     1       4.625   5.450  -7.806  0.00  0.00    -0.039 C 
ATOM     12  C   UNL     1       3.413   6.072  -8.440  0.00  0.00    +0.046 C 
ATOM     13  C   UNL     1       2.647   4.934  -9.059  0.00  0.00    +0.007 C 
ATOM     14  C   UNL     1       3.859   7.012  -9.522  0.00  0.00    +0.014 C 
ATOM     15  C   UNL     1       4.771   6.413 -10.539  0.00  0.00    +0.070 C 
ATOM     16  C   UNL     1       5.832   5.549  -9.953  0.00  0.00    +0.173 C 
ATOM     17  O   UNL     1       6.991   5.762 -10.428  0.00  0.00    -0.291 OA
ATOM     18  C   UNL     1       5.586   5.020  -8.627  0.00  0.00    +0.029 C 
ATOM     19  C   UNL     1       2.787   6.721  -7.339  0.00  0.00    +0.164 C 
ATOM     20  F   UNL     1       3.458   7.761  -6.817  0.00  0.00    -0.237 F 
ATOM     21  C   UNL     1       1.306   7.345  -7.618  0.00  0.00    +0.182 C 
ATOM     22  O   UNL     1       1.340   7.080  -9.115  0.00  0.00    -0.220 OA
ATOM     23  C   UNL     1       0.434   5.970  -7.333  0.00  0.00    +0.038 C 
ENDROOT
BRANCH   3  24
ATOM     24  C   UNL     1      -1.973   5.677  -4.880  0.00  0.00    +0.211 C 
ATOM     25  O   UNL     1      -2.577   5.534  -5.945  0.00  0.00    -0.291 OA
BRANCH  24  26
ATOM     26  C   UNL     1      -2.840   5.780  -3.683  0.00  0.00    +0.248 C 
ATOM     27  O   UNL     1      -2.966   4.591  -2.991  0.00  0.00    -0.212 OA
ENDBRANCH  24  26
ENDBRANCH   3  24
TORSDOF 2
ENDMDL
MODEL 2
REMARK VINA RESULT:      -9.4      2.131      3.549
REMARK  Name = 
REMARK  2 active torsions:
REMARK  status: ('A' for Active; 'I' for Inactive)
REMARK    1  A    between atoms: C_22  and  C_24
REMARK    2  A    between atoms: C_24  and  C_26
REMARK                            x       y       z     vdW  Elec       q    Type
REMARK                         _______ _______ _______ _____ _____    ______ ____
ROOT
ATOM      1  C   UNL     1      -0.988   7.807  -4.816  0.00  0.00    +0.003 C 
ATOM      2  C   UNL     1      -0.519   6.673  -4.168  0.00  0.00    +0.035 C 
ATOM      3  C   UNL     1      -1.453   6.318  -3.151  0.00  0.00    +0.180 C 
ATOM      4  O   UNL     1      -1.310   5.041  -2.627  0.00  0.00    -0.218 OA
ATOM      5  C   UNL     1      -2.741   6.263  -3.984  0.00  0.00    +0.038 C 
ATOM      6  C   UNL     1      -2.311   6.067  -5.435  0.00  0.00    +0.003 C 
ATOM      7  C   UNL     1      -0.874   5.404  -5.120  0.00  0.00    +0.006 C 
ATOM      8  C   UNL     1      -0.019   6.195  -6.351  0.00  0.00    +0.033 C 
ATOM      9  C   UNL     1      -0.653   5.317  -7.553  0.00  0.00    +0.007 C 
ATOM     10  C   UNL     1       0.357   5.426  -8.620  0.00  0.00    +0.022 C 
ATOM     11  C   UNL     1       1.691   5.928  -8.263  0.00  0.00    -0.039 C 
ATOM     12  C   UNL     1       2.295   5.838  -6.890  0.00  0.00    +0.046 C 
ATOM     13  C   UNL     1       2.660   7.248  -6.510  0.00  0.00    +0.007 C 
ATOM     14  C   UNL     1       3.545   5.010  -6.963  0.00  0.00    +0.014 C 
ATOM     15  C   UNL     1       4.541   5.461  -7.979  0.00  0.00    +0.070 C 
ATOM     16  C   UNL     1       3.931   5.833  -9.286  0.00  0.00    +0.173 C 
ATOM     17  O   UNL     1       4.539   5.355 -10.294  0.00  0.00    -0.291 OA
ATOM     18  C   UNL     1       2.523   6.172  -9.278  0.00  0.00    +0.029 C 
ATOM     19  C   UNL     1       1.253   5.235  -6.132  0.00  0.00    +0.164 C 
ATOM     20  F   UNL     1       0.960   3.964  -6.449  0.00  0.00    -0.237 F 
ATOM     21  C   UNL     1       1.484   5.165  -4.519  0.00  0.00    +0.182 C 
ATOM     22  O   UNL     1       2.919   5.663  -4.577  0.00  0.00    -0.220 OA
ATOM     23  C   UNL     1       0.912   6.672  -4.151  0.00  0.00    +0.038 C 
ENDROOT
BRANCH   3  24
ATOM     24  C   UNL     1      -1.771   7.270  -2.069  0.00  0.00    +0.211 C 
ATOM     25  O   UNL     1      -2.226   8.358  -2.430  0.00  0.00    -0.291 OA
BRANCH  24  26
ATOM     26  C   UNL     1      -1.108   7.282  -0.745  0.00  0.00    +0.248 C 
ATOM     27  O   UNL     1      -1.348   8.434  -0.019  0.00  0.00    -0.212 OA
ENDBRANCH  24  26
ENDBRANCH   3  24
TORSDOF 2
ENDMDL
MODEL 3
REMARK VINA RESULT:      -9.2      2.465      7.585
REMARK  Name = 
REMARK  2 active torsions:
REMARK  status: ('A' for Active; 'I' for Inactive)
REMARK    1  A    between atoms: C_22  and  C_24
REMARK    2  A    between atoms: C_24  and  C_26
REMARK                            x       y       z     vdW  Elec       q    Type
REMARK                         _______ _______ _______ _____ _____    ______ ____
ROOT
ATOM      1  C   UNL     1       5.357   7.412 -11.267  0.00  0.00    +0.003 C 
ATOM      2  C   UNL     1       4.594   6.312 -11.634  0.00  0.00    +0.035 C 
ATOM      3  C   UNL     1       5.166   5.741 -12.808  0.00  0.00    +0.180 C 
ATOM      4  O   UNL     1       4.731   4.461 -13.123  0.00  0.00    -0.218 OA
ATOM      5  C   UNL     1       6.615   5.563 -12.338  0.00  0.00    +0.038 C 
ATOM      6  C   UNL     1       6.577   5.551 -10.812  0.00  0.00    +0.003 C 
ATOM      7  C   UNL     1       5.040   5.085 -10.663  0.00  0.00    +0.006 C 
ATOM      8  C   UNL     1       4.656   6.091  -9.355  0.00  0.00    +0.033 C 
ATOM      9  C   UNL     1       5.483   5.230  -8.264  0.00  0.00    +0.007 C 
ATOM     10  C   UNL     1       4.824   5.573  -6.992  0.00  0.00    +0.022 C 
ATOM     11  C   UNL     1       3.514   6.238  -7.048  0.00  0.00    -0.039 C 
ATOM     12  C   UNL     1       2.551   6.127  -8.196  0.00  0.00    +0.046 C 
ATOM     13  C   UNL     1       2.271   7.540  -8.632  0.00  0.00    +0.007 C 
ATOM     14  C   UNL     1       1.278   5.502  -7.704  0.00  0.00    +0.014 C 
ATOM     15  C   UNL     1       0.660   6.177  -6.525  0.00  0.00    +0.070 C 
ATOM     16  C   UNL     1       1.644   6.559  -5.475  0.00  0.00    +0.173 C 
ATOM     17  O   UNL     1       1.281   6.259  -4.294  0.00  0.00    -0.291 OA
ATOM     18  C   UNL     1       3.027   6.683  -5.888  0.00  0.00    +0.029 C 
ATOM     19  C   UNL     1       3.266   5.317  -9.122  0.00  0.00    +0.164 C 
ATOM     20  F   UNL     1       3.478   4.046  -8.744  0.00  0.00    -0.237 F 
ATOM     21  C   UNL     1       2.596   5.151 -10.600  0.00  0.00    +0.182 C 
ATOM     22  O   UNL     1       1.303   5.860 -10.231  0.00  0.00    -0.220 OA
ATOM     23  C   UNL     1       3.224   6.522 -11.278  0.00  0.00    +0.038 C 
ENDROOT
BRANCH   3  24
ATOM     24  C   UNL     1       5.289   6.544 -14.040  0.00  0.00    +0.211 C 
ATOM     25  O   UNL     1       4.381   6.407 -14.862  0.00  0.00    -0.291 OA
BRANCH  24  26
ATOM     26  C   UNL     1       6.575   7.012 -14.608  0.00  0.00    +0.248 C 
ATOM     27  O   UNL     1       6.441   8.098 -15.454  0.00  0.00    -0.212 OA
ENDBRANCH  24  26
ENDBRANCH   3  24
TORSDOF 2
ENDMDL
MODEL 4
REMARK VINA RESULT:      -9.1      1.666      7.197
REMARK  Name = 
REMARK  2 active torsions:
REMARK  status: ('A' for Active; 'I' for Inactive)
REMARK    1  A    between atoms: C_22  and  C_24
REMARK    2  A    between atoms: C_24  and  C_26
REMARK                            x       y       z     vdW  Elec       q    Type
REMARK                         _______ _______ _______ _____ _____    ______ ____
ROOT
ATOM      1  C   UNL     1       4.108   4.423  -9.587  0.00  0.00    +0.003 C 
ATOM      2  C   UNL     1       4.238   5.796  -9.429  0.00  0.00    +0.035 C 
ATOM      3  C   UNL     1       5.148   6.278 -10.415  0.00  0.00    +0.180 C 
ATOM      4  O   UNL     1       5.146   7.652 -10.610  0.00  0.00    -0.218 OA
ATOM      5  C   UNL     1       4.501   5.696 -11.679  0.00  0.00    +0.038 C 
ATOM      6  C   UNL     1       3.042   5.417 -11.330  0.00  0.00    +0.003 C 
ATOM      7  C   UNL     1       2.930   6.475 -10.117  0.00  0.00    +0.006 C 
ATOM      8  C   UNL     1       1.991   5.504  -9.095  0.00  0.00    +0.033 C 
ATOM      9  C   UNL     1       0.628   5.671  -9.950  0.00  0.00    +0.007 C 
ATOM     10  C   UNL     1      -0.428   5.407  -8.958  0.00  0.00    +0.022 C 
ATOM     11  C   UNL     1      -0.060   5.419  -7.535  0.00  0.00    -0.039 C 
ATOM     12  C   UNL     1       1.106   6.173  -6.963  0.00  0.00    +0.046 C 
ATOM     13  C   UNL     1       1.937   5.151  -6.234  0.00  0.00    +0.007 C 
ATOM     14  C   UNL     1       0.596   7.185  -5.978  0.00  0.00    +0.014 C 
ATOM     15  C   UNL     1      -0.286   6.632  -4.909  0.00  0.00    +0.070 C 
ATOM     16  C   UNL     1      -1.288   5.651  -5.410  0.00  0.00    +0.173 C 
ATOM     17  O   UNL     1      -2.461   5.837  -4.960  0.00  0.00    -0.291 OA
ATOM     18  C   UNL     1      -1.000   5.013  -6.678  0.00  0.00    +0.029 C 
ATOM     19  C   UNL     1       1.699   6.750  -8.121  0.00  0.00    +0.164 C 
ATOM     20  F   UNL     1       0.970   7.690  -8.743  0.00  0.00    -0.237 F 
ATOM     21  C   UNL     1       3.137   7.488  -7.902  0.00  0.00    +0.182 C 
ATOM     22  O   UNL     1       3.108   7.369  -6.386  0.00  0.00    -0.220 OA
ATOM     23  C   UNL     1       4.094   6.149  -8.050  0.00  0.00    +0.038 C 
ENDROOT
BRANCH   3  24
ATOM     24  C   UNL     1       6.533   5.769 -10.459  0.00  0.00    +0.211 C 
ATOM     25  O   UNL     1       7.129   5.746  -9.380  0.00  0.00    -0.291 OA
BRANCH  24  26
ATOM     26  C   UNL     1       7.410   5.831 -11.651  0.00  0.00    +0.248 C 
ATOM     27  O   UNL     1       7.683   4.591 -12.200  0.00  0.00    -0.212 OA
ENDBRANCH  24  26
ENDBRANCH   3  24
TORSDOF 2
ENDMDL
MODEL 5
REMARK VINA RESULT:      -8.9      1.643      7.040
REMARK  Name = 
REMARK  2 active torsions:
REMARK  status: ('A' for Active; 'I' for Inactive)
REMARK    1  A    between atoms: C_22  and  C_24
REMARK    2  A    between atoms: C_24  and  C_26
REMARK                            x       y       z     vdW  Elec       q    Type
REMARK                         _______ _______ _______ _____ _____    ______ ____
ROOT
ATOM      1  C   UNL     1       3.688   4.289  -9.372  0.00  0.00    +0.003 C 
ATOM      2  C   UNL     1       4.009   5.614  -9.109  0.00  0.00    +0.035 C 
ATOM      3  C   UNL     1       4.705   6.139 -10.238  0.00  0.00    +0.180 C 
ATOM      4  O   UNL     1       4.814   7.522 -10.282  0.00  0.00    -0.218 OA
ATOM      5  C   UNL     1       3.709   5.784 -11.350  0.00  0.00    +0.038 C 
ATOM      6  C   UNL     1       2.355   5.588 -10.674  0.00  0.00    +0.003 C 
ATOM      7  C   UNL     1       2.662   6.486  -9.370  0.00  0.00    +0.006 C 
ATOM      8  C   UNL     1       1.891   5.475  -8.250  0.00  0.00    +0.033 C 
ATOM      9  C   UNL     1       0.391   5.868  -8.710  0.00  0.00    +0.007 C 
ATOM     10  C   UNL     1      -0.418   5.570  -7.516  0.00  0.00    +0.022 C 
ATOM     11  C   UNL     1       0.281   5.366  -6.238  0.00  0.00    -0.039 C 
ATOM     12  C   UNL     1       1.630   5.936  -5.906  0.00  0.00    +0.046 C 
ATOM     13  C   UNL     1       2.488   4.760  -5.521  0.00  0.00    +0.007 C 
ATOM     14  C   UNL     1       1.492   6.851  -4.724  0.00  0.00    +0.014 C 
ATOM     15  C   UNL     1       0.837   6.243  -3.530  0.00  0.00    +0.070 C 
ATOM     16  C   UNL     1      -0.362   5.425  -3.860  0.00  0.00    +0.173 C 
ATOM     17  O   UNL     1      -1.363   5.651  -3.111  0.00  0.00    -0.291 OA
ATOM     18  C   UNL     1      -0.465   4.934  -5.219  0.00  0.00    +0.029 C 
ATOM     19  C   UNL     1       1.989   6.605  -7.109  0.00  0.00    +0.164 C 
ATOM     20  F   UNL     1       1.245   7.677  -7.425  0.00  0.00    -0.237 F 
ATOM     21  C   UNL     1       3.513   7.182  -7.185  0.00  0.00    +0.182 C 
ATOM     22  O   UNL     1       3.837   6.870  -5.733  0.00  0.00    -0.220 OA
ATOM     23  C   UNL     1       4.245   5.795  -7.710  0.00  0.00    +0.038 C 
ENDROOT
BRANCH   3  24
ATOM     24  C   UNL     1       5.969   5.522 -10.684  0.00  0.00    +0.211 C 
ATOM     25  O   UNL     1       6.904   5.577  -9.881  0.00  0.00    -0.291 OA
BRANCH  24  26
ATOM     26  C   UNL     1       6.376   5.378 -12.101  0.00  0.00    +0.248 C 
ATOM     27  O   UNL     1       7.540   4.652 -12.270  0.00  0.00    -0.212 OA
ENDBRANCH  24  26
ENDBRANCH   3  24
TORSDOF 2
ENDMDL
MODEL 6
REMARK VINA RESULT:      -8.9      2.840      5.767
REMARK  Name = 
REMARK  2 active torsions:
REMARK  status: ('A' for Active; 'I' for Inactive)
REMARK    1  A    between atoms: C_22  and  C_24
REMARK    2  A    between atoms: C_24  and  C_26
REMARK                            x       y       z     vdW  Elec       q    Type
REMARK                         _______ _______ _______ _____ _____    ______ ____
ROOT
ATOM      1  C   UNL     1       1.757   4.037  -6.970  0.00  0.00    +0.003 C 
ATOM      2  C   UNL     1       2.034   5.378  -7.200  0.00  0.00    +0.035 C 
ATOM      3  C   UNL     1       1.399   5.765  -8.416  0.00  0.00    +0.180 C 
ATOM      4  O   UNL     1       1.300   7.134  -8.629  0.00  0.00    -0.218 OA
ATOM      5  C   UNL     1      -0.035   5.304  -8.125  0.00  0.00    +0.038 C 
ATOM      6  C   UNL     1      -0.158   5.203  -6.607  0.00  0.00    +0.003 C 
ATOM      7  C   UNL     1       1.029   6.235  -6.251  0.00  0.00    +0.006 C 
ATOM      8  C   UNL     1       1.659   5.365  -4.941  0.00  0.00    +0.033 C 
ATOM      9  C   UNL     1       0.447   5.725  -3.932  0.00  0.00    +0.007 C 
ATOM     10  C   UNL     1       1.057   5.573  -2.600  0.00  0.00    +0.022 C 
ATOM     11  C   UNL     1       2.523   5.501  -2.515  0.00  0.00    -0.039 C 
ATOM     12  C   UNL     1       3.465   6.085  -3.528  0.00  0.00    +0.046 C 
ATOM     13  C   UNL     1       4.343   4.947  -3.975  0.00  0.00    +0.007 C 
ATOM     14  C   UNL     1       4.314   7.127  -2.859  0.00  0.00    +0.014 C 
ATOM     15  C   UNL     1       5.032   6.663  -1.636  0.00  0.00    +0.070 C 
ATOM     16  C   UNL     1       4.192   5.832  -0.732  0.00  0.00    +0.173 C 
ATOM     17  O   UNL     1       4.280   6.153   0.494  0.00  0.00    -0.291 OA
ATOM     18  C   UNL     1       3.031   5.195  -1.319  0.00  0.00    +0.029 C 
ATOM     19  C   UNL     1       2.578   6.612  -4.508  0.00  0.00    +0.164 C 
ATOM     20  F   UNL     1       1.827   7.653  -4.115  0.00  0.00    -0.237 F 
ATOM     21  C   UNL     1       3.265   7.156  -5.884  0.00  0.00    +0.182 C 
ATOM     22  O   UNL     1       4.691   7.001  -5.380  0.00  0.00    -0.220 OA
ATOM     23  C   UNL     1       3.326   5.709  -6.683  0.00  0.00    +0.038 C 
ENDROOT
BRANCH   3  24
ATOM     24  C   UNL     1       1.741   5.086  -9.681  0.00  0.00    +0.211 C 
ATOM     25  O   UNL     1       2.839   5.370 -10.162  0.00  0.00    -0.291 OA
BRANCH  24  26
ATOM     26  C   UNL     1       0.744   4.588 -10.659  0.00  0.00    +0.248 C 
ATOM     27  O   UNL     1       0.457   5.495 -11.662  0.00  0.00    -0.212 OA
ENDBRANCH  24  26
ENDBRANCH   3  24
TORSDOF 2
ENDMDL
MODEL 7
REMARK VINA RESULT:      -8.8      2.321      6.030
REMARK  Name = 
REMARK  2 active torsions:
REMARK  status: ('A' for Active; 'I' for Inactive)
REMARK    1  A    between atoms: C_22  and  C_24
REMARK    2  A    between atoms: C_24  and  C_26
REMARK                            x       y       z     vdW  Elec       q    Type
REMARK                         _______ _______ _______ _____ _____    ______ ____
ROOT
ATOM      1  C   UNL     1       2.218   7.455  -8.239  0.00  0.00    +0.003 C 
ATOM      2  C   UNL     1       1.762   6.145  -8.189  0.00  0.00    +0.035 C 
ATOM      3  C   UNL     1       1.837   5.593  -9.502  0.00  0.00    +0.180 C 
ATOM      4  O   UNL     1       1.730   4.211  -9.577  0.00  0.00    -0.218 OA
ATOM      5  C   UNL     1       3.305   5.896  -9.832  0.00  0.00    +0.038 C 
ATOM      6  C   UNL     1       4.017   6.093  -8.497  0.00  0.00    +0.003 C 
ATOM      7  C   UNL     1       2.980   5.243  -7.600  0.00  0.00    +0.006 C 
ATOM      8  C   UNL     1       2.986   6.279  -6.259  0.00  0.00    +0.033 C 
ATOM      9  C   UNL     1       4.460   5.848  -5.751  0.00  0.00    +0.007 C 
ATOM     10  C   UNL     1       4.432   6.173  -4.315  0.00  0.00    +0.022 C 
ATOM     11  C   UNL     1       3.127   6.430  -3.688  0.00  0.00    -0.039 C 
ATOM     12  C   UNL     1       1.819   5.891  -4.194  0.00  0.00    +0.046 C 
ATOM     13  C   UNL     1       0.936   7.093  -4.403  0.00  0.00    +0.007 C 
ATOM     14  C   UNL     1       1.214   5.014  -3.137  0.00  0.00    +0.014 C 
ATOM     15  C   UNL     1       1.070   5.651  -1.796  0.00  0.00    +0.070 C 
ATOM     16  C   UNL     1       2.263   6.439  -1.380  0.00  0.00    +0.173 C 
ATOM     17  O   UNL     1       2.633   6.222  -0.184  0.00  0.00    -0.291 OA
ATOM     18  C   UNL     1       3.153   6.884  -2.433  0.00  0.00    +0.029 C 
ATOM     19  C   UNL     1       2.207   5.189  -5.369  0.00  0.00    +0.164 C 
ATOM     20  F   UNL     1       2.961   4.096  -5.173  0.00  0.00    -0.237 F 
ATOM     21  C   UNL     1       0.995   4.633  -6.309  0.00  0.00    +0.182 C 
ATOM     22  O   UNL     1      -0.104   4.998  -5.323  0.00  0.00    -0.220 OA
ATOM     23  C   UNL     1       0.750   6.013  -7.186  0.00  0.00    +0.038 C 
ENDROOT
BRANCH   3  24
ATOM     24  C   UNL     1       1.089   6.214 -10.612  0.00  0.00    +0.211 C 
ATOM     25  O   UNL     1      -0.140   6.145 -10.534  0.00  0.00    -0.291 OA
BRANCH  24  26
ATOM     26  C   UNL     1       1.615   6.378 -11.987  0.00  0.00    +0.248 C 
ATOM     27  O   UNL     1       1.380   5.286 -12.802  0.00  0.00    -0.212 OA
ENDBRANCH  24  26
ENDBRANCH   3  24
TORSDOF 2
ENDMDL
MODEL 8
REMARK VINA RESULT:      -8.8      2.888      4.594
REMARK  Name = 
REMARK  2 active torsions:
REMARK  status: ('A' for Active; 'I' for Inactive)
REMARK    1  A    between atoms: C_22  and  C_24
REMARK    2  A    between atoms: C_24  and  C_26
REMARK                            x       y       z     vdW  Elec       q    Type
REMARK                         _______ _______ _______ _____ _____    ______ ____
ROOT
ATOM      1  C   UNL     1       4.066   4.911  -3.423  0.00  0.00    +0.003 C 
ATOM      2  C   UNL     1       3.265   6.044  -3.378  0.00  0.00    +0.035 C 
ATOM      3  C   UNL     1       3.688   6.848  -2.279  0.00  0.00    +0.180 C 
ATOM      4  O   UNL     1       3.219   8.155  -2.279  0.00  0.00    -0.218 OA
ATOM      5  C   UNL     1       5.185   6.963  -2.596  0.00  0.00    +0.038 C 
ATOM      6  C   UNL     1       5.336   6.673  -4.086  0.00  0.00    +0.003 C 
ATOM      7  C   UNL     1       3.829   7.065  -4.510  0.00  0.00    +0.006 C 
ATOM      8  C   UNL     1       3.609   5.813  -5.630  0.00  0.00    +0.033 C 
ATOM      9  C   UNL     1       4.566   6.462  -6.761  0.00  0.00    +0.007 C 
ATOM     10  C   UNL     1       4.069   5.860  -8.011  0.00  0.00    +0.022 C 
ATOM     11  C   UNL     1       2.760   5.190  -7.984  0.00  0.00    -0.039 C 
ATOM     12  C   UNL     1       1.663   5.503  -7.007  0.00  0.00    +0.046 C 
ATOM     13  C   UNL     1       1.329   4.197  -6.337  0.00  0.00    +0.007 C 
ATOM     14  C   UNL     1       0.462   5.989  -7.764  0.00  0.00    +0.014 C 
ATOM     15  C   UNL     1      -0.006   5.081  -8.852  0.00  0.00    +0.070 C 
ATOM     16  C   UNL     1       1.099   4.523  -9.678  0.00  0.00    +0.173 C 
ATOM     17  O   UNL     1       0.885   4.576 -10.929  0.00  0.00    -0.291 OA
ATOM     18  C   UNL     1       2.420   4.514  -9.083  0.00  0.00    +0.029 C 
ATOM     19  C   UNL     1       2.259   6.495  -6.179  0.00  0.00    +0.164 C 
ATOM     20  F   UNL     1       2.519   7.671  -6.773  0.00  0.00    -0.237 F 
ATOM     21  C   UNL     1       1.413   6.933  -4.856  0.00  0.00    +0.182 C 
ATOM     22  O   UNL     1       0.173   6.136  -5.232  0.00  0.00    -0.220 OA
ATOM     23  C   UNL     1       1.949   5.737  -3.849  0.00  0.00    +0.038 C 
ENDROOT
BRANCH   3  24
ATOM     24  C   UNL     1       3.656   6.306  -0.906  0.00  0.00    +0.211 C 
ATOM     25  O   UNL     1       2.535   6.124  -0.428  0.00  0.00    -0.291 OA
BRANCH  24  26
ATOM     26  C   UNL     1       4.734   6.495   0.092  0.00  0.00    +0.248 C 
ATOM     27  O   UNL     1       4.270   6.867   1.340  0.00  0.00    -0.212 OA
ENDBRANCH  24  26
ENDBRANCH   3  24
TORSDOF 2
ENDMDL
MODEL 9
REMARK VINA RESULT:      -8.4      3.087      4.650
REMARK  Name = 
REMARK  2 active torsions:
REMARK  status: ('A' for Active; 'I' for Inactive)
REMARK    1  A    between atoms: C_22  and  C_24
REMARK    2  A    between atoms: C_24  and  C_26
REMARK                            x       y       z     vdW  Elec       q    Type
REMARK                         _______ _______ _______ _____ _____    ______ ____
ROOT
ATOM      1  C   UNL     1       2.214   7.315  -7.008  0.00  0.00    +0.003 C 
ATOM      2  C   UNL     1       2.613   5.988  -7.093  0.00  0.00    +0.035 C 
ATOM      3  C   UNL     1       2.538   5.412  -5.791  0.00  0.00    +0.180 C 
ATOM      4  O   UNL     1       2.588   4.026  -5.746  0.00  0.00    -0.218 OA
ATOM      5  C   UNL     1       1.091   5.770  -5.427  0.00  0.00    +0.038 C 
ATOM      6  C   UNL     1       0.363   6.026  -6.743  0.00  0.00    +0.003 C 
ATOM      7  C   UNL     1       1.346   5.152  -7.677  0.00  0.00    +0.006 C 
ATOM      8  C   UNL     1       1.360   6.216  -8.996  0.00  0.00    +0.033 C 
ATOM      9  C   UNL     1      -0.141   5.859  -9.484  0.00  0.00    +0.007 C 
ATOM     10  C   UNL     1      -0.125   6.212 -10.914  0.00  0.00    +0.022 C 
ATOM     11  C   UNL     1       1.178   6.427 -11.560  0.00  0.00    -0.039 C 
ATOM     12  C   UNL     1       2.471   5.823 -11.091  0.00  0.00    +0.046 C 
ATOM     13  C   UNL     1       3.408   6.981 -10.875  0.00  0.00    +0.007 C 
ATOM     14  C   UNL     1       3.019   4.944 -12.177  0.00  0.00    +0.014 C 
ATOM     15  C   UNL     1       3.165   5.603 -13.507  0.00  0.00    +0.070 C 
ATOM     16  C   UNL     1       1.999   6.449 -13.884  0.00  0.00    +0.173 C 
ATOM     17  O   UNL     1       1.598   6.274 -15.077  0.00  0.00    -0.291 OA
ATOM     18  C   UNL     1       1.149   6.909 -12.805  0.00  0.00    +0.029 C 
ATOM     19  C   UNL     1       2.075   5.113  -9.923  0.00  0.00    +0.164 C 
ATOM     20  F   UNL     1       1.271   4.057 -10.127  0.00  0.00    -0.237 F 
ATOM     21  C   UNL     1       3.279   4.486  -9.019  0.00  0.00    +0.182 C 
ATOM     22  O   UNL     1       4.374   4.825 -10.018  0.00  0.00    -0.220 OA
ATOM     23  C   UNL     1       3.599   5.835  -8.118  0.00  0.00    +0.038 C 
ENDROOT
BRANCH   3  24
ATOM     24  C   UNL     1       3.333   5.977  -4.683  0.00  0.00    +0.211 C 
ATOM     25  O   UNL     1       4.514   5.627  -4.638  0.00  0.00    -0.291 OA
BRANCH  24  26
ATOM     26  C   UNL     1       2.766   6.416  -3.386  0.00  0.00    +0.248 C 
ATOM     27  O   UNL     1       2.986   5.520  -2.357  0.00  0.00    -0.212 OA
ENDBRANCH  24  26
ENDBRANCH   3  24
TORSDOF 2
ENDMDL
