MODEL 1
REMARK VINA RESULT:      -5.7      0.000      0.000
REMARK  Name = 
REMARK  1 active torsions:
REMARK  status: ('A' for Active; 'I' for Inactive)
REMARK    1  A    between atoms: C_2  and  C_4
REMARK                            x       y       z     vdW  Elec       q    Type
REMARK                         _______ _______ _______ _____ _____    ______ ____
ROOT
ATOM      1  C   UNL     1       7.522   6.475 -11.248  0.00  0.00    +0.119 A 
ATOM      2  C   UNL     1       7.247   5.813 -10.058  0.00  0.00    +0.202 A 
ATOM      3  O   UNL     1       8.194   4.896  -9.627  0.00  0.00    -0.286 OA
ATOM      4  C   UNL     1       5.985   5.895  -9.476  0.00  0.00    +0.042 A 
ATOM      5  C   UNL     1       4.955   6.512 -10.178  0.00  0.00    +0.003 A 
ATOM      6  C   UNL     1       5.381   7.570 -10.977  0.00  0.00    +0.000 A 
ATOM      7  C   UNL     1       6.672   7.546 -11.501  0.00  0.00    +0.010 A 
ENDROOT
BRANCH   1   9
ATOM      8  O   UNL     1       9.620   5.935 -12.234  0.00  0.00    -0.240 OA
ATOM      9  C   UNL     1       8.353   5.857 -12.291  0.00  0.00    +0.391 C 
ATOM     10  O   UNL     1       7.897   4.644 -12.821  0.00  0.00    -0.240 OA
ENDBRANCH   1   9
TORSDOF 1
ENDMDL
MODEL 2
REMARK VINA RESULT:      -5.3      1.973      3.018
REMARK  Name = 
REMARK  1 active torsions:
REMARK  status: ('A' for Active; 'I' for Inactive)
REMARK    1  A    between atoms: C_2  and  C_4
REMARK                            x       y       z     vdW  Elec       q    Type
REMARK                         _______ _______ _______ _____ _____    ______ ____
ROOT
ATOM      1  C   UNL     1       6.432   6.555 -12.810  0.00  0.00    +0.119 A 
ATOM      2  C   UNL     1       7.548   5.767 -12.558  0.00  0.00    +0.202 A 
ATOM      3  O   UNL     1       7.806   4.752 -13.469  0.00  0.00    -0.286 OA
ATOM      4  C   UNL     1       8.213   5.845 -11.338  0.00  0.00    +0.042 A 
ATOM      5  C   UNL     1       7.655   6.601 -10.312  0.00  0.00    +0.003 A 
ATOM      6  C   UNL     1       6.965   7.725 -10.759  0.00  0.00    +0.000 A 
ATOM      7  C   UNL     1       6.363   7.695 -12.016  0.00  0.00    +0.010 A 
ENDROOT
BRANCH   1   9
ATOM      8  O   UNL     1       5.108   6.302 -14.771  0.00  0.00    -0.240 OA
ATOM      9  C   UNL     1       5.272   6.026 -13.542  0.00  0.00    +0.391 C 
ATOM     10  O   UNL     1       4.852   4.735 -13.205  0.00  0.00    -0.240 OA
ENDBRANCH   1   9
TORSDOF 1
ENDMDL
MODEL 3
REMARK VINA RESULT:      -5.2     10.636     11.746
REMARK  Name = 
REMARK  1 active torsions:
REMARK  status: ('A' for Active; 'I' for Inactive)
REMARK    1  A    between atoms: C_2  and  C_4
REMARK                            x       y       z     vdW  Elec       q    Type
REMARK                         _______ _______ _______ _____ _____    ______ ____
ROOT
ATOM      1  C   UNL     1      -1.137   6.078  -3.668  0.00  0.00    +0.119 A 
ATOM      2  C   UNL     1      -1.900   7.204  -3.951  0.00  0.00    +0.202 A 
ATOM      3  O   UNL     1      -2.223   8.018  -2.875  0.00  0.00    -0.286 OA
ATOM      4  C   UNL     1      -2.500   7.360  -5.197  0.00  0.00    +0.042 A 
ATOM      5  C   UNL     1      -2.464   6.304  -6.102  0.00  0.00    +0.003 A 
ATOM      6  C   UNL     1      -1.302   5.541  -6.021  0.00  0.00    +0.000 A 
ATOM      7  C   UNL     1      -0.639   5.442  -4.799  0.00  0.00    +0.010 A 
ENDROOT
BRANCH   1   9
ATOM      8  O   UNL     1      -2.272   4.882  -1.952  0.00  0.00    -0.240 OA
ATOM      9  C   UNL     1      -1.196   5.427  -2.351  0.00  0.00    +0.391 C 
ATOM     10  O   UNL     1      -0.045   4.750  -1.933  0.00  0.00    -0.240 OA
ENDBRANCH   1   9
TORSDOF 1
ENDMDL
MODEL 4
REMARK VINA RESULT:      -5.0      2.450      3.847
REMARK  Name = 
REMARK  1 active torsions:
REMARK  status: ('A' for Active; 'I' for Inactive)
REMARK    1  A    between atoms: C_2  and  C_4
REMARK                            x       y       z     vdW  Elec       q    Type
REMARK                         _______ _______ _______ _____ _____    ______ ____
ROOT
ATOM      1  C   UNL     1       5.603   5.975 -11.493  0.00  0.00    +0.119 A 
ATOM      2  C   UNL     1       6.255   5.426 -12.590  0.00  0.00    +0.202 A 
ATOM      3  O   UNL     1       5.465   4.736 -13.498  0.00  0.00    -0.286 OA
ATOM      4  C   UNL     1       7.646   5.369 -12.634  0.00  0.00    +0.042 A 
ATOM      5  C   UNL     1       8.372   5.719 -11.501  0.00  0.00    +0.003 A 
ATOM      6  C   UNL     1       7.778   6.727 -10.747  0.00  0.00    +0.000 A 
ATOM      7  C   UNL     1       6.390   6.853 -10.757  0.00  0.00    +0.010 A 
ENDROOT
BRANCH   1   9
ATOM      8  O   UNL     1       4.364   4.812  -9.827  0.00  0.00    -0.240 OA
ATOM      9  C   UNL     1       4.368   5.380 -10.962  0.00  0.00    +0.391 C 
ATOM     10  O   UNL     1       3.174   6.053 -11.248  0.00  0.00    -0.240 OA
ENDBRANCH   1   9
TORSDOF 1
ENDMDL
MODEL 5
REMARK VINA RESULT:      -4.9      2.282      3.390
REMARK  Name = 
REMARK  1 active torsions:
REMARK  status: ('A' for Active; 'I' for Inactive)
REMARK    1  A    between atoms: C_2  and  C_4
REMARK                            x       y       z     vdW  Elec       q    Type
REMARK                         _______ _______ _______ _____ _____    ______ ____
ROOT
ATOM      1  C   UNL     1       5.292   6.247 -11.233  0.00  0.00    +0.119 A 
ATOM      2  C   UNL     1       6.418   7.055 -11.336  0.00  0.00    +0.202 A 
ATOM      3  O   UNL     1       6.538   7.802 -12.499  0.00  0.00    -0.286 OA
ATOM      4  C   UNL     1       7.470   6.926 -10.433  0.00  0.00    +0.042 A 
ATOM      5  C   UNL     1       7.455   5.873  -9.525  0.00  0.00    +0.003 A 
ATOM      6  C   UNL     1       6.177   5.519  -9.102  0.00  0.00    +0.000 A 
ATOM      7  C   UNL     1       5.099   5.719  -9.962  0.00  0.00    +0.010 A 
ENDROOT
BRANCH   1   9
ATOM      8  O   UNL     1       5.164   4.761 -13.088  0.00  0.00    -0.240 OA
ATOM      9  C   UNL     1       4.629   5.706 -12.428  0.00  0.00    +0.391 C 
ATOM     10  O   UNL     1       3.232   5.633 -12.392  0.00  0.00    -0.240 OA
ENDBRANCH   1   9
TORSDOF 1
ENDMDL
MODEL 6
REMARK VINA RESULT:      -4.9      9.732     11.374
REMARK  Name = 
REMARK  1 active torsions:
REMARK  status: ('A' for Active; 'I' for Inactive)
REMARK    1  A    between atoms: C_2  and  C_4
REMARK                            x       y       z     vdW  Elec       q    Type
REMARK                         _______ _______ _______ _____ _____    ______ ____
ROOT
ATOM      1  C   UNL     1      -1.515   5.843  -4.386  0.00  0.00    +0.119 A 
ATOM      2  C   UNL     1      -1.519   5.716  -5.770  0.00  0.00    +0.202 A 
ATOM      3  O   UNL     1      -2.740   5.893  -6.404  0.00  0.00    -0.286 OA
ATOM      4  C   UNL     1      -0.411   5.203  -6.439  0.00  0.00    +0.042 A 
ATOM      5  C   UNL     1       0.638   4.668  -5.699  0.00  0.00    +0.003 A 
ATOM      6  C   UNL     1       0.843   5.309  -4.480  0.00  0.00    +0.000 A 
ATOM      7  C   UNL     1      -0.240   5.902  -3.835  0.00  0.00    +0.010 A 
ENDROOT
BRANCH   1   9
ATOM      8  O   UNL     1      -2.705   4.589  -2.750  0.00  0.00    -0.240 OA
ATOM      9  C   UNL     1      -2.713   5.543  -3.589  0.00  0.00    +0.391 C 
ATOM     10  O   UNL     1      -3.482   6.637  -3.175  0.00  0.00    -0.240 OA
ENDBRANCH   1   9
TORSDOF 1
ENDMDL
MODEL 7
REMARK VINA RESULT:      -4.8      7.468      8.988
REMARK  Name = 
REMARK  1 active torsions:
REMARK  status: ('A' for Active; 'I' for Inactive)
REMARK    1  A    between atoms: C_2  and  C_4
REMARK                            x       y       z     vdW  Elec       q    Type
REMARK                         _______ _______ _______ _____ _____    ______ ____
ROOT
ATOM      1  C   UNL     1       0.098   5.597  -6.472  0.00  0.00    +0.119 A 
ATOM      2  C   UNL     1       0.028   6.468  -5.391  0.00  0.00    +0.202 A 
ATOM      3  O   UNL     1       1.237   6.920  -4.882  0.00  0.00    -0.286 OA
ATOM      4  C   UNL     1      -1.174   6.669  -4.718  0.00  0.00    +0.042 A 
ATOM      5  C   UNL     1      -2.268   5.871  -5.035  0.00  0.00    +0.003 A 
ATOM      6  C   UNL     1      -2.318   5.500  -6.376  0.00  0.00    +0.000 A 
ATOM      7  C   UNL     1      -1.128   5.375  -7.090  0.00  0.00    +0.010 A 
ENDROOT
BRANCH   1   9
ATOM      8  O   UNL     1       1.372   3.642  -6.004  0.00  0.00    -0.240 OA
ATOM      9  C   UNL     1       1.259   4.718  -6.671  0.00  0.00    +0.391 C 
ATOM     10  O   UNL     1       1.752   4.614  -7.976  0.00  0.00    -0.240 OA
ENDBRANCH   1   9
TORSDOF 1
ENDMDL
MODEL 8
REMARK VINA RESULT:      -4.8      2.484      3.859
REMARK  Name = 
REMARK  1 active torsions:
REMARK  status: ('A' for Active; 'I' for Inactive)
REMARK    1  A    between atoms: C_2  and  C_4
REMARK                            x       y       z     vdW  Elec       q    Type
REMARK                         _______ _______ _______ _____ _____    ______ ____
ROOT
ATOM      1  C   UNL     1       6.404   6.137 -10.124  0.00  0.00    +0.119 A 
ATOM      2  C   UNL     1       6.195   7.160 -11.042  0.00  0.00    +0.202 A 
ATOM      3  O   UNL     1       5.068   7.944 -10.848  0.00  0.00    -0.286 OA
ATOM      4  C   UNL     1       6.944   7.225 -12.214  0.00  0.00    +0.042 A 
ATOM      5  C   UNL     1       7.790   6.169 -12.536  0.00  0.00    +0.003 A 
ATOM      6  C   UNL     1       8.358   5.552 -11.425  0.00  0.00    +0.000 A 
ATOM      7  C   UNL     1       7.661   5.550 -10.219  0.00  0.00    +0.010 A 
ENDROOT
BRANCH   1   9
ATOM      8  O   UNL     1       4.403   4.850 -10.068  0.00  0.00    -0.240 OA
ATOM      9  C   UNL     1       5.280   5.502  -9.421  0.00  0.00    +0.391 C 
ATOM     10  O   UNL     1       5.555   4.958  -8.161  0.00  0.00    -0.240 OA
ENDBRANCH   1   9
TORSDOF 1
ENDMDL
MODEL 9
REMARK VINA RESULT:      -4.8      9.367     10.891
REMARK  Name = 
REMARK  1 active torsions:
REMARK  status: ('A' for Active; 'I' for Inactive)
REMARK    1  A    between atoms: C_2  and  C_4
REMARK                            x       y       z     vdW  Elec       q    Type
REMARK                         _______ _______ _______ _____ _____    ______ ____
ROOT
ATOM      1  C   UNL     1      -1.532   6.227  -4.630  0.00  0.00    +0.119 A 
ATOM      2  C   UNL     1      -0.314   5.563  -4.546  0.00  0.00    +0.202 A 
ATOM      3  O   UNL     1       0.371   5.679  -3.346  0.00  0.00    -0.286 OA
ATOM      4  C   UNL     1       0.281   5.024  -5.683  0.00  0.00    +0.042 A 
ATOM      5  C   UNL     1      -0.274   5.296  -6.930  0.00  0.00    +0.003 A 
ATOM      6  C   UNL     1      -1.660   5.420  -6.908  0.00  0.00    +0.000 A 
ATOM      7  C   UNL     1      -2.282   5.878  -5.748  0.00  0.00    +0.010 A 
ENDROOT
BRANCH   1   9
ATOM      8  O   UNL     1      -1.903   8.567  -4.416  0.00  0.00    -0.240 OA
ATOM      9  C   UNL     1      -1.797   7.439  -3.842  0.00  0.00    +0.391 C 
ATOM     10  O   UNL     1      -2.646   7.297  -2.738  0.00  0.00    -0.240 OA
ENDBRANCH   1   9
TORSDOF 1
ENDMDL
