MODEL 1
REMARK VINA RESULT:      -9.4      0.000      0.000
REMARK  Name = 
REMARK  6 active torsions:
REMARK  status: ('A' for Active; 'I' for Inactive)
REMARK    1  A    between atoms: O_2  and  C_3
REMARK    2  A    between atoms: C_6  and  N_7
REMARK    3  A    between atoms: C_8  and  C_10
REMARK    4  A    between atoms: C_13  and  C_14
REMARK    5  A    between atoms: C_21  and  C_22
REMARK    6  A    between atoms: N_24  and  C_25
REMARK                            x       y       z     vdW  Elec       q    Type
REMARK                         _______ _______ _______ _____ _____    ______ ____
ROOT
ATOM      1  C   UNL     1       4.055   6.077  -0.893  0.00  0.00    +0.139 A 
ATOM      2  C   UNL     1       2.675   6.108  -0.726  0.00  0.00    +0.043 A 
ATOM      3  C   UNL     1       1.828   6.212  -1.824  0.00  0.00    +0.074 A 
ATOM      4  C   UNL     1       2.321   6.035  -3.111  0.00  0.00    +0.078 A 
ATOM      5  C   UNL     1       3.690   5.825  -3.220  0.00  0.00    +0.020 A 
ATOM      6  C   UNL     1       4.549   5.867  -2.155  0.00  0.00    +0.038 A 
ENDROOT
BRANCH   4   7
ATOM      7  N   UNL     1       1.573   6.720  -4.122  0.00  0.00    -0.175 NA
ATOM      8  C   UNL     1       1.002   6.067  -5.236  0.00  0.00    +0.269 C 
ATOM      9  O   UNL     1       0.627   4.873  -5.055  0.00  0.00    -0.268 OA
BRANCH   8  10
ATOM     10  C   UNL     1       1.022   6.621  -6.595  0.00  0.00    +0.055 A 
ATOM     11  C   UNL     1       2.180   7.264  -7.007  0.00  0.00    +0.005 A 
ATOM     12  C   UNL     1       2.557   7.312  -8.343  0.00  0.00    +0.008 A 
ATOM     13  C   UNL     1       2.025   6.366  -9.210  0.00  0.00    +0.087 A 
ATOM     14  C   UNL     1       0.770   5.879  -8.892  0.00  0.00    +0.008 A 
ATOM     15  C   UNL     1       0.364   5.880  -7.564  0.00  0.00    +0.005 A 
BRANCH  13  16
ATOM     16  C   UNL     1       2.800   5.869 -10.334  0.00  0.00    +0.376 C 
ATOM     17  N   UNL     1       3.943   5.062 -10.042  0.00  0.00    -0.179 N 
ATOM     18  C   UNL     1       3.851   4.176  -8.884  0.00  0.00    +0.254 C 
ATOM     19  C   UNL     1       5.276   5.565 -10.362  0.00  0.00    +0.254 C 
ATOM     20  N   UNL     1       2.834   6.510 -11.462  0.00  0.00    +0.193 NA
ENDBRANCH  13  16
ENDBRANCH   8  10
ENDBRANCH   4   7
BRANCH   3  21
ATOM     21  C   UNL     1       0.412   5.873  -1.623  0.00  0.00    +0.272 C 
ATOM     22  N   UNL     1      -0.608   6.842  -1.521  0.00  0.00    -0.157 NA
ATOM     23  O   UNL     1       0.031   4.697  -1.907  0.00  0.00    -0.268 OA
BRANCH  22  24
ATOM     24  C   UNL     1      -1.834   6.798  -2.243  0.00  0.00    +0.155 A 
ATOM     25  N   UNL     1      -1.928   7.628  -3.311  0.00  0.00    -0.226 NA
ATOM     26  C   UNL     1      -2.599   7.274  -4.434  0.00  0.00    +0.112 A 
ATOM     27  C   UNL     1      -2.927   5.948  -4.691  0.00  0.00    +0.077 A 
ATOM     28 CL   UNL     1      -2.711   5.233  -6.285  0.00  0.00    -0.081 Cl
ATOM     29  C   UNL     1      -3.049   5.150  -3.559  0.00  0.00    +0.016 A 
ATOM     30  C   UNL     1      -2.619   5.655  -2.337  0.00  0.00    +0.037 A 
ENDBRANCH  22  24
ENDBRANCH   3  21
BRANCH   1  32
ATOM     31  C   UNL     1       4.974   7.241   1.051  0.00  0.00    +0.252 C 
ATOM     32  O   UNL     1       4.833   6.098   0.245  0.00  0.00    -0.471 OA
ENDBRANCH   1  32
TORSDOF 6
ENDMDL
MODEL 2
REMARK VINA RESULT:      -9.3      4.317     10.456
REMARK  Name = 
REMARK  6 active torsions:
REMARK  status: ('A' for Active; 'I' for Inactive)
REMARK    1  A    between atoms: O_2  and  C_3
REMARK    2  A    between atoms: C_6  and  N_7
REMARK    3  A    between atoms: C_8  and  C_10
REMARK    4  A    between atoms: C_13  and  C_14
REMARK    5  A    between atoms: C_21  and  C_22
REMARK    6  A    between atoms: N_24  and  C_25
REMARK                            x       y       z     vdW  Elec       q    Type
REMARK                         _______ _______ _______ _____ _____    ______ ____
ROOT
ATOM      1  C   UNL     1       0.883   5.706 -14.346  0.00  0.00    +0.139 A 
ATOM      2  C   UNL     1       2.259   5.802 -14.521  0.00  0.00    +0.043 A 
ATOM      3  C   UNL     1       3.105   5.963 -13.430  0.00  0.00    +0.074 A 
ATOM      4  C   UNL     1       2.627   5.784 -12.137  0.00  0.00    +0.078 A 
ATOM      5  C   UNL     1       1.271   5.510 -12.017  0.00  0.00    +0.020 A 
ATOM      6  C   UNL     1       0.405   5.493 -13.078  0.00  0.00    +0.038 A 
ENDROOT
BRANCH   4   7
ATOM      7  N   UNL     1       3.346   6.520 -11.141  0.00  0.00    -0.175 NA
ATOM      8  C   UNL     1       3.862   5.931  -9.967  0.00  0.00    +0.269 C 
ATOM      9  O   UNL     1       4.224   4.722 -10.058  0.00  0.00    -0.268 OA
BRANCH   8  10
ATOM     10  C   UNL     1       3.797   6.570  -8.646  0.00  0.00    +0.055 A 
ATOM     11  C   UNL     1       2.612   7.199  -8.297  0.00  0.00    +0.005 A 
ATOM     12  C   UNL     1       2.206   7.319  -6.975  0.00  0.00    +0.008 A 
ATOM     13  C   UNL     1       2.751   6.449  -6.039  0.00  0.00    +0.087 A 
ATOM     14  C   UNL     1       4.027   5.983  -6.302  0.00  0.00    +0.008 A 
ATOM     15  C   UNL     1       4.459   5.914  -7.621  0.00  0.00    +0.005 A 
BRANCH  13  16
ATOM     16  C   UNL     1       1.970   5.999  -4.899  0.00  0.00    +0.376 C 
ATOM     17  N   UNL     1       0.913   5.070  -5.149  0.00  0.00    -0.179 N 
ATOM     18  C   UNL     1       1.131   4.086  -6.206  0.00  0.00    +0.254 C 
ATOM     19  C   UNL     1      -0.470   5.483  -4.931  0.00  0.00    +0.254 C 
ATOM     20  N   UNL     1       1.832   6.742  -3.844  0.00  0.00    +0.193 NA
ENDBRANCH  13  16
ENDBRANCH   8  10
ENDBRANCH   4   7
BRANCH   3  21
ATOM     21  C   UNL     1       4.534   5.690 -13.633  0.00  0.00    +0.272 C 
ATOM     22  N   UNL     1       5.487   6.701 -13.881  0.00  0.00    -0.157 NA
ATOM     23  O   UNL     1       4.997   4.583 -13.222  0.00  0.00    -0.268 OA
BRANCH  22  24
ATOM     24  C   UNL     1       6.730   6.819 -13.198  0.00  0.00    +0.155 A 
ATOM     25  N   UNL     1       6.718   7.559 -12.061  0.00  0.00    -0.226 NA
ATOM     26  C   UNL     1       7.489   7.238 -10.993  0.00  0.00    +0.112 A 
ATOM     27  C   UNL     1       8.059   5.978 -10.867  0.00  0.00    +0.077 A 
ATOM     28 CL   UNL     1       8.041   5.102  -9.340  0.00  0.00    -0.081 Cl
ATOM     29  C   UNL     1       8.275   5.315 -12.070  0.00  0.00    +0.016 A 
ATOM     30  C   UNL     1       7.711   5.835 -13.229  0.00  0.00    +0.037 A 
ENDBRANCH  22  24
ENDBRANCH   3  21
BRANCH   1  32
ATOM     31  C   UNL     1      -0.278   6.829 -16.181  0.00  0.00    +0.252 C 
ATOM     32  O   UNL     1       0.099   5.672 -15.479  0.00  0.00    -0.471 OA
ENDBRANCH   1  32
TORSDOF 6
ENDMDL
MODEL 3
REMARK VINA RESULT:      -9.2      2.553      6.757
REMARK  Name = 
REMARK  6 active torsions:
REMARK  status: ('A' for Active; 'I' for Inactive)
REMARK    1  A    between atoms: O_2  and  C_3
REMARK    2  A    between atoms: C_6  and  N_7
REMARK    3  A    between atoms: C_8  and  C_10
REMARK    4  A    between atoms: C_13  and  C_14
REMARK    5  A    between atoms: C_21  and  C_22
REMARK    6  A    between atoms: N_24  and  C_25
REMARK                            x       y       z     vdW  Elec       q    Type
REMARK                         _______ _______ _______ _____ _____    ______ ____
ROOT
ATOM      1  C   UNL     1       0.686   5.478  -9.177  0.00  0.00    +0.139 A 
ATOM      2  C   UNL     1       0.462   5.303  -7.816  0.00  0.00    +0.043 A 
ATOM      3  C   UNL     1       1.221   5.989  -6.876  0.00  0.00    +0.074 A 
ATOM      4  C   UNL     1       2.042   7.040  -7.267  0.00  0.00    +0.078 A 
ATOM      5  C   UNL     1       2.099   7.299  -8.630  0.00  0.00    +0.020 A 
ATOM      6  C   UNL     1       1.466   6.535  -9.573  0.00  0.00    +0.038 A 
ENDROOT
BRANCH   4   7
ATOM      7  N   UNL     1       3.163   7.259  -6.403  0.00  0.00    -0.175 NA
ATOM      8  C   UNL     1       4.175   6.298  -6.193  0.00  0.00    +0.269 C 
ATOM      9  O   UNL     1       4.432   5.531  -7.166  0.00  0.00    -0.268 OA
BRANCH   8  10
ATOM     10  C   UNL     1       4.766   6.022  -4.877  0.00  0.00    +0.055 A 
ATOM     11  C   UNL     1       5.031   7.105  -4.054  0.00  0.00    +0.005 A 
ATOM     12  C   UNL     1       5.028   6.994  -2.670  0.00  0.00    +0.008 A 
ATOM     13  C   UNL     1       4.346   5.926  -2.099  0.00  0.00    +0.087 A 
ATOM     14  C   UNL     1       4.265   4.772  -2.858  0.00  0.00    +0.008 A 
ATOM     15  C   UNL     1       4.324   4.872  -4.242  0.00  0.00    +0.005 A 
BRANCH  13  16
ATOM     16  C   UNL     1       3.690   6.067  -0.810  0.00  0.00    +0.376 C 
ATOM     17  N   UNL     1       2.418   6.717  -0.785  0.00  0.00    -0.179 N 
ATOM     18  C   UNL     1       1.540   6.500  -1.932  0.00  0.00    +0.254 C 
ATOM     19  C   UNL     1       2.283   8.004  -0.108  0.00  0.00    +0.254 C 
ATOM     20  N   UNL     1       4.376   6.125   0.290  0.00  0.00    +0.193 NA
ENDBRANCH  13  16
ENDBRANCH   8  10
ENDBRANCH   4   7
BRANCH   3  21
ATOM     21  C   UNL     1       0.706   6.049  -5.501  0.00  0.00    +0.272 C 
ATOM     22  N   UNL     1      -0.168   7.058  -5.045  0.00  0.00    -0.157 NA
ATOM     23  O   UNL     1       0.743   4.992  -4.800  0.00  0.00    -0.268 OA
BRANCH  22  24
ATOM     24  C   UNL     1      -1.365   6.815  -4.315  0.00  0.00    +0.155 A 
ATOM     25  N   UNL     1      -1.519   5.562  -3.820  0.00  0.00    -0.226 NA
ATOM     26  C   UNL     1      -2.124   5.334  -2.628  0.00  0.00    +0.112 A 
ATOM     27  C   UNL     1      -2.307   6.356  -1.705  0.00  0.00    +0.077 A 
ATOM     28 CL   UNL     1      -1.980   6.125   0.009  0.00  0.00    -0.081 Cl
ATOM     29  C   UNL     1      -2.373   7.631  -2.255  0.00  0.00    +0.016 A 
ATOM     30  C   UNL     1      -2.026   7.800  -3.591  0.00  0.00    +0.037 A 
ENDBRANCH  22  24
ENDBRANCH   3  21
BRANCH   1  32
ATOM     31  C   UNL     1       0.244   4.628 -11.426  0.00  0.00    +0.252 C 
ATOM     32  O   UNL     1      -0.020   4.674 -10.047  0.00  0.00    -0.471 OA
ENDBRANCH   1  32
TORSDOF 6
ENDMDL
MODEL 4
REMARK VINA RESULT:      -9.2      2.750      7.509
REMARK  Name = 
REMARK  6 active torsions:
REMARK  status: ('A' for Active; 'I' for Inactive)
REMARK    1  A    between atoms: O_2  and  C_3
REMARK    2  A    between atoms: C_6  and  N_7
REMARK    3  A    between atoms: C_8  and  C_10
REMARK    4  A    between atoms: C_13  and  C_14
REMARK    5  A    between atoms: C_21  and  C_22
REMARK    6  A    between atoms: N_24  and  C_25
REMARK                            x       y       z     vdW  Elec       q    Type
REMARK                         _______ _______ _______ _____ _____    ______ ____
ROOT
ATOM      1  C   UNL     1       3.792   5.860 -11.473  0.00  0.00    +0.139 A 
ATOM      2  C   UNL     1       2.556   5.762 -10.842  0.00  0.00    +0.043 A 
ATOM      3  C   UNL     1       2.456   5.835  -9.458  0.00  0.00    +0.074 A 
ATOM      4  C   UNL     1       3.541   6.253  -8.696  0.00  0.00    +0.078 A 
ATOM      5  C   UNL     1       4.714   6.514  -9.391  0.00  0.00    +0.020 A 
ATOM      6  C   UNL     1       4.860   6.305 -10.736  0.00  0.00    +0.038 A 
ENDROOT
BRANCH   4   7
ATOM      7  N   UNL     1       3.546   5.741  -7.358  0.00  0.00    -0.175 NA
ATOM      8  C   UNL     1       3.539   6.568  -6.215  0.00  0.00    +0.269 C 
ATOM      9  O   UNL     1       2.939   7.676  -6.327  0.00  0.00    -0.268 OA
BRANCH   8  10
ATOM     10  C   UNL     1       4.350   6.301  -5.020  0.00  0.00    +0.055 A 
ATOM     11  C   UNL     1       4.605   7.365  -4.168  0.00  0.00    +0.005 A 
ATOM     12  C   UNL     1       4.825   7.182  -2.810  0.00  0.00    +0.008 A 
ATOM     13  C   UNL     1       4.368   6.009  -2.223  0.00  0.00    +0.087 A 
ATOM     14  C   UNL     1       4.310   4.895  -3.042  0.00  0.00    +0.008 A 
ATOM     15  C   UNL     1       4.148   5.073  -4.410  0.00  0.00    +0.005 A 
BRANCH  13  16
ATOM     16  C   UNL     1       3.902   5.997  -0.847  0.00  0.00    +0.376 C 
ATOM     17  N   UNL     1       2.587   6.497  -0.592  0.00  0.00    -0.179 N 
ATOM     18  C   UNL     1       1.574   6.250  -1.615  0.00  0.00    +0.254 C 
ATOM     19  C   UNL     1       2.424   7.717   0.192  0.00  0.00    +0.254 C 
ATOM     20  N   UNL     1       4.736   6.067   0.145  0.00  0.00    +0.193 NA
ENDBRANCH  13  16
ENDBRANCH   8  10
ENDBRANCH   4   7
BRANCH   3  21
ATOM     21  C   UNL     1       1.127   6.095  -8.886  0.00  0.00    +0.272 C 
ATOM     22  N   UNL     1       0.264   5.073  -8.437  0.00  0.00    -0.157 NA
ATOM     23  O   UNL     1       0.882   7.259  -8.445  0.00  0.00    -0.268 OA
BRANCH  22  24
ATOM     24  C   UNL     1      -0.402   5.078  -7.180  0.00  0.00    +0.155 A 
ATOM     25  N   UNL     1       0.336   5.478  -6.114  0.00  0.00    -0.226 NA
ATOM     26  C   UNL     1      -0.209   6.186  -5.094  0.00  0.00    +0.112 A 
ATOM     27  C   UNL     1      -1.434   6.826  -5.233  0.00  0.00    +0.077 A 
ATOM     28 CL   UNL     1      -1.694   8.466  -4.648  0.00  0.00    -0.081 Cl
ATOM     29  C   UNL     1      -2.279   6.262  -6.182  0.00  0.00    +0.016 A 
ATOM     30  C   UNL     1      -1.767   5.300  -7.045  0.00  0.00    +0.037 A 
ENDBRANCH  22  24
ENDBRANCH   3  21
BRANCH   1  32
ATOM     31  C   UNL     1       5.009   5.334 -13.526  0.00  0.00    +0.252 C 
ATOM     32  O   UNL     1       3.829   5.655 -12.835  0.00  0.00    -0.471 OA
ENDBRANCH   1  32
TORSDOF 6
ENDMDL
MODEL 5
REMARK VINA RESULT:      -8.9      2.968      5.267
REMARK  Name = 
REMARK  6 active torsions:
REMARK  status: ('A' for Active; 'I' for Inactive)
REMARK    1  A    between atoms: O_2  and  C_3
REMARK    2  A    between atoms: C_6  and  N_7
REMARK    3  A    between atoms: C_8  and  C_10
REMARK    4  A    between atoms: C_13  and  C_14
REMARK    5  A    between atoms: C_21  and  C_22
REMARK    6  A    between atoms: N_24  and  C_25
REMARK                            x       y       z     vdW  Elec       q    Type
REMARK                         _______ _______ _______ _____ _____    ______ ____
ROOT
ATOM      1  C   UNL     1      -0.978   5.343  -3.777  0.00  0.00    +0.139 A 
ATOM      2  C   UNL     1       0.263   5.364  -3.150  0.00  0.00    +0.043 A 
ATOM      3  C   UNL     1       1.431   5.519  -3.887  0.00  0.00    +0.074 A 
ATOM      4  C   UNL     1       1.374   5.904  -5.221  0.00  0.00    +0.078 A 
ATOM      5  C   UNL     1       0.104   6.047  -5.764  0.00  0.00    +0.020 A 
ATOM      6  C   UNL     1      -1.047   5.755  -5.084  0.00  0.00    +0.038 A 
ENDROOT
BRANCH   4   7
ATOM      7  N   UNL     1       2.492   5.467  -6.003  0.00  0.00    -0.175 NA
ATOM      8  C   UNL     1       3.216   6.323  -6.860  0.00  0.00    +0.269 C 
ATOM      9  O   UNL     1       3.291   7.536  -6.510  0.00  0.00    -0.268 OA
BRANCH   8  10
ATOM     10  C   UNL     1       3.683   5.924  -8.194  0.00  0.00    +0.055 A 
ATOM     11  C   UNL     1       3.396   6.771  -9.253  0.00  0.00    +0.005 A 
ATOM     12  C   UNL     1       4.208   6.843 -10.377  0.00  0.00    +0.008 A 
ATOM     13  C   UNL     1       5.520   6.402 -10.269  0.00  0.00    +0.087 A 
ATOM     14  C   UNL     1       5.759   5.403  -9.340  0.00  0.00    +0.008 A 
ATOM     15  C   UNL     1       4.916   5.291  -8.242  0.00  0.00    +0.005 A 
BRANCH  13  16
ATOM     16  C   UNL     1       6.582   7.030 -11.036  0.00  0.00    +0.376 C 
ATOM     17  N   UNL     1       7.110   6.306 -12.149  0.00  0.00    -0.179 N 
ATOM     18  C   UNL     1       6.173   5.481 -12.907  0.00  0.00    +0.254 C 
ATOM     19  C   UNL     1       8.492   5.838 -12.109  0.00  0.00    +0.254 C 
ATOM     20  N   UNL     1       7.385   7.892 -10.490  0.00  0.00    +0.193 NA
ENDBRANCH  13  16
ENDBRANCH   8  10
ENDBRANCH   4   7
BRANCH   3  21
ATOM     21  C   UNL     1       2.649   5.899  -3.157  0.00  0.00    +0.272 C 
ATOM     22  N   UNL     1       2.961   7.231  -2.813  0.00  0.00    -0.157 NA
ATOM     23  O   UNL     1       3.258   5.001  -2.499  0.00  0.00    -0.268 OA
BRANCH  22  24
ATOM     24  C   UNL     1       3.371   7.652  -1.517  0.00  0.00    +0.155 A 
ATOM     25  N   UNL     1       3.764   8.946  -1.406  0.00  0.00    -0.226 NA
ATOM     26  C   UNL     1       3.513   9.675  -0.291  0.00  0.00    +0.112 A 
ATOM     27  C   UNL     1       2.565   9.267   0.640  0.00  0.00    +0.077 A 
ATOM     28 CL   UNL     1       1.414  10.398   1.345  0.00  0.00    -0.081 Cl
ATOM     29  C   UNL     1       2.333   7.897   0.671  0.00  0.00    +0.016 A 
ATOM     30  C   UNL     1       2.861   7.108  -0.345  0.00  0.00    +0.037 A 
ENDBRANCH  22  24
ENDBRANCH   3  21
BRANCH   1  32
ATOM     31  C   UNL     1      -3.208   5.898  -2.944  0.00  0.00    +0.252 C 
ATOM     32  O   UNL     1      -2.080   5.062  -2.999  0.00  0.00    -0.471 OA
ENDBRANCH   1  32
TORSDOF 6
ENDMDL
MODEL 6
REMARK VINA RESULT:      -8.7      3.945      9.028
REMARK  Name = 
REMARK  6 active torsions:
REMARK  status: ('A' for Active; 'I' for Inactive)
REMARK    1  A    between atoms: O_2  and  C_3
REMARK    2  A    between atoms: C_6  and  N_7
REMARK    3  A    between atoms: C_8  and  C_10
REMARK    4  A    between atoms: C_13  and  C_14
REMARK    5  A    between atoms: C_21  and  C_22
REMARK    6  A    between atoms: N_24  and  C_25
REMARK                            x       y       z     vdW  Elec       q    Type
REMARK                         _______ _______ _______ _____ _____    ______ ____
ROOT
ATOM      1  C   UNL     1       0.315   6.601 -11.605  0.00  0.00    +0.139 A 
ATOM      2  C   UNL     1       1.384   6.899 -10.767  0.00  0.00    +0.043 A 
ATOM      3  C   UNL     1       1.738   6.041  -9.732  0.00  0.00    +0.074 A 
ATOM      4  C   UNL     1       1.201   4.761  -9.666  0.00  0.00    +0.078 A 
ATOM      5  C   UNL     1       0.262   4.438 -10.637  0.00  0.00    +0.020 A 
ATOM      6  C   UNL     1      -0.197   5.328 -11.570  0.00  0.00    +0.038 A 
ENDROOT
BRANCH   4   7
ATOM      7  N   UNL     1       1.143   4.219  -8.341  0.00  0.00    -0.175 NA
ATOM      8  C   UNL     1       0.532   4.889  -7.260  0.00  0.00    +0.269 C 
ATOM      9  O   UNL     1      -0.451   5.632  -7.542  0.00  0.00    -0.268 OA
BRANCH   8  10
ATOM     10  C   UNL     1       1.102   4.925  -5.907  0.00  0.00    +0.055 A 
ATOM     11  C   UNL     1       2.388   4.436  -5.741  0.00  0.00    +0.005 A 
ATOM     12  C   UNL     1       3.229   4.905  -4.740  0.00  0.00    +0.008 A 
ATOM     13  C   UNL     1       2.957   6.148  -4.183  0.00  0.00    +0.087 A 
ATOM     14  C   UNL     1       1.630   6.540  -4.173  0.00  0.00    +0.008 A 
ATOM     15  C   UNL     1       0.771   6.030  -5.137  0.00  0.00    +0.005 A 
BRANCH  13  16
ATOM     16  C   UNL     1       4.034   7.008  -3.723  0.00  0.00    +0.376 C 
ATOM     17  N   UNL     1       4.121   7.263  -2.319  0.00  0.00    -0.179 N 
ATOM     18  C   UNL     1       3.744   6.173  -1.423  0.00  0.00    +0.254 C 
ATOM     19  C   UNL     1       3.888   8.615  -1.820  0.00  0.00    +0.254 C 
ATOM     20  N   UNL     1       4.542   7.919  -4.495  0.00  0.00    +0.193 NA
ENDBRANCH  13  16
ENDBRANCH   8  10
ENDBRANCH   4   7
BRANCH   3  21
ATOM     21  C   UNL     1       3.068   6.215  -9.131  0.00  0.00    +0.272 C 
ATOM     22  N   UNL     1       4.251   5.712  -9.711  0.00  0.00    -0.157 NA
ATOM     23  O   UNL     1       3.221   7.137  -8.273  0.00  0.00    -0.268 OA
BRANCH  22  24
ATOM     24  C   UNL     1       5.442   6.469  -9.894  0.00  0.00    +0.155 A 
ATOM     25  N   UNL     1       6.596   5.870  -9.507  0.00  0.00    -0.226 NA
ATOM     26  C   UNL     1       7.758   6.057 -10.179  0.00  0.00    +0.112 A 
ATOM     27  C   UNL     1       7.771   6.578 -11.467  0.00  0.00    +0.077 A 
ATOM     28 CL   UNL     1       8.783   5.892 -12.734  0.00  0.00    -0.081 Cl
ATOM     29  C   UNL     1       6.681   7.383 -11.779  0.00  0.00    +0.016 A 
ATOM     30  C   UNL     1       5.598   7.406 -10.908  0.00  0.00    +0.037 A 
ENDBRANCH  22  24
ENDBRANCH   3  21
BRANCH   1  32
ATOM     31  C   UNL     1       0.607   7.725 -13.756  0.00  0.00    +0.252 C 
ATOM     32  O   UNL     1      -0.055   7.555 -12.528  0.00  0.00    -0.471 OA
ENDBRANCH   1  32
TORSDOF 6
ENDMDL
MODEL 7
REMARK VINA RESULT:      -8.7      1.863      2.575
REMARK  Name = 
REMARK  6 active torsions:
REMARK  status: ('A' for Active; 'I' for Inactive)
REMARK    1  A    between atoms: O_2  and  C_3
REMARK    2  A    between atoms: C_6  and  N_7
REMARK    3  A    between atoms: C_8  and  C_10
REMARK    4  A    between atoms: C_13  and  C_14
REMARK    5  A    between atoms: C_21  and  C_22
REMARK    6  A    between atoms: N_24  and  C_25
REMARK                            x       y       z     vdW  Elec       q    Type
REMARK                         _______ _______ _______ _____ _____    ______ ____
ROOT
ATOM      1  C   UNL     1       3.384   8.330   1.062  0.00  0.00    +0.139 A 
ATOM      2  C   UNL     1       2.256   7.601   0.705  0.00  0.00    +0.043 A 
ATOM      3  C   UNL     1       2.125   7.073  -0.574  0.00  0.00    +0.074 A 
ATOM      4  C   UNL     1       3.213   7.047  -1.438  0.00  0.00    +0.078 A 
ATOM      5  C   UNL     1       4.382   7.631  -0.970  0.00  0.00    +0.020 A 
ATOM      6  C   UNL     1       4.475   8.280   0.232  0.00  0.00    +0.038 A 
ENDROOT
BRANCH   4   7
ATOM      7  N   UNL     1       2.857   7.060  -2.825  0.00  0.00    -0.175 NA
ATOM      8  C   UNL     1       3.349   6.122  -3.758  0.00  0.00    +0.269 C 
ATOM      9  O   UNL     1       3.595   4.964  -3.313  0.00  0.00    -0.268 OA
BRANCH   8  10
ATOM     10  C   UNL     1       3.774   6.482  -5.117  0.00  0.00    +0.055 A 
ATOM     11  C   UNL     1       4.684   5.645  -5.746  0.00  0.00    +0.005 A 
ATOM     12  C   UNL     1       4.729   5.515  -7.127  0.00  0.00    +0.008 A 
ATOM     13  C   UNL     1       3.604   5.876  -7.858  0.00  0.00    +0.087 A 
ATOM     14  C   UNL     1       2.807   6.866  -7.310  0.00  0.00    +0.008 A 
ATOM     15  C   UNL     1       2.801   7.038  -5.932  0.00  0.00    +0.005 A 
BRANCH  13  16
ATOM     16  C   UNL     1       3.257   5.178  -9.084  0.00  0.00    +0.376 C 
ATOM     17  N   UNL     1       3.395   5.894 -10.313  0.00  0.00    -0.179 N 
ATOM     18  C   UNL     1       4.501   6.844 -10.406  0.00  0.00    +0.254 C 
ATOM     19  C   UNL     1       2.204   6.217 -11.092  0.00  0.00    +0.254 C 
ATOM     20  N   UNL     1       2.387   4.215  -9.085  0.00  0.00    +0.193 NA
ENDBRANCH  13  16
ENDBRANCH   8  10
ENDBRANCH   4   7
BRANCH   3  21
ATOM     21  C   UNL     1       1.114   6.025  -0.775  0.00  0.00    +0.272 C 
ATOM     22  N   UNL     1      -0.130   6.259  -1.398  0.00  0.00    -0.157 NA
ATOM     23  O   UNL     1       1.490   4.814  -0.728  0.00  0.00    -0.268 OA
BRANCH  22  24
ATOM     24  C   UNL     1      -0.675   5.452  -2.436  0.00  0.00    +0.155 A 
ATOM     25  N   UNL     1      -2.027   5.344  -2.462  0.00  0.00    -0.226 NA
ATOM     26  C   UNL     1      -2.714   5.264  -3.628  0.00  0.00    +0.112 A 
ATOM     27  C   UNL     1      -2.130   5.625  -4.836  0.00  0.00    +0.077 A 
ATOM     28 CL   UNL     1      -2.990   6.597  -6.025  0.00  0.00    -0.081 Cl
ATOM     29  C   UNL     1      -0.745   5.514  -4.868  0.00  0.00    +0.016 A 
ATOM     30  C   UNL     1      -0.066   5.295  -3.675  0.00  0.00    +0.037 A 
ENDBRANCH  22  24
ENDBRANCH   3  21
BRANCH   1  32
ATOM     31  C   UNL     1       3.303   8.195   3.502  0.00  0.00    +0.252 C 
ATOM     32  O   UNL     1       3.389   8.926   2.305  0.00  0.00    -0.471 OA
ENDBRANCH   1  32
TORSDOF 6
ENDMDL
MODEL 8
REMARK VINA RESULT:      -8.7      2.941      7.186
REMARK  Name = 
REMARK  6 active torsions:
REMARK  status: ('A' for Active; 'I' for Inactive)
REMARK    1  A    between atoms: O_2  and  C_3
REMARK    2  A    between atoms: C_6  and  N_7
REMARK    3  A    between atoms: C_8  and  C_10
REMARK    4  A    between atoms: C_13  and  C_14
REMARK    5  A    between atoms: C_21  and  C_22
REMARK    6  A    between atoms: N_24  and  C_25
REMARK                            x       y       z     vdW  Elec       q    Type
REMARK                         _______ _______ _______ _____ _____    ______ ____
ROOT
ATOM      1  C   UNL     1       5.245   5.488  -8.814  0.00  0.00    +0.139 A 
ATOM      2  C   UNL     1       4.898   5.524  -7.468  0.00  0.00    +0.043 A 
ATOM      3  C   UNL     1       3.629   5.143  -7.049  0.00  0.00    +0.074 A 
ATOM      4  C   UNL     1       2.768   4.488  -7.922  0.00  0.00    +0.078 A 
ATOM      5  C   UNL     1       3.229   4.311  -9.220  0.00  0.00    +0.020 A 
ATOM      6  C   UNL     1       4.418   4.813  -9.675  0.00  0.00    +0.038 A 
ENDROOT
BRANCH   4   7
ATOM      7  N   UNL     1       1.380   4.678  -7.626  0.00  0.00    -0.175 NA
ATOM      8  C   UNL     1       0.755   5.944  -7.634  0.00  0.00    +0.269 C 
ATOM      9  O   UNL     1       1.215   6.792  -8.451  0.00  0.00    -0.268 OA
BRANCH   8  10
ATOM     10  C   UNL     1      -0.225   6.367  -6.625  0.00  0.00    +0.055 A 
ATOM     11  C   UNL     1      -1.263   5.495  -6.334  0.00  0.00    +0.005 A 
ATOM     12  C   UNL     1      -1.878   5.475  -5.090  0.00  0.00    +0.008 A 
ATOM     13  C   UNL     1      -1.190   6.009  -4.008  0.00  0.00    +0.087 A 
ATOM     14  C   UNL     1      -0.297   7.028  -4.290  0.00  0.00    +0.008 A 
ATOM     15  C   UNL     1       0.280   7.086  -5.552  0.00  0.00    +0.005 A 
BRANCH  13  16
ATOM     16  C   UNL     1      -1.352   5.453  -2.675  0.00  0.00    +0.376 C 
ATOM     17  N   UNL     1      -2.319   6.064  -1.819  0.00  0.00    -0.179 N 
ATOM     18  C   UNL     1      -3.531   6.581  -2.449  0.00  0.00    +0.254 C 
ATOM     19  C   UNL     1      -1.873   6.761  -0.616  0.00  0.00    +0.254 C 
ATOM     20  N   UNL     1      -0.374   4.843  -2.079  0.00  0.00    +0.193 NA
ENDBRANCH  13  16
ENDBRANCH   8  10
ENDBRANCH   4   7
BRANCH   3  21
ATOM     21  C   UNL     1       3.444   4.852  -5.620  0.00  0.00    +0.272 C 
ATOM     22  N   UNL     1       4.096   5.568  -4.594  0.00  0.00    -0.157 NA
ATOM     23  O   UNL     1       2.415   4.198  -5.270  0.00  0.00    -0.268 OA
BRANCH  22  24
ATOM     24  C   UNL     1       3.445   6.101  -3.446  0.00  0.00    +0.155 A 
ATOM     25  N   UNL     1       3.404   5.296  -2.355  0.00  0.00    -0.226 NA
ATOM     26  C   UNL     1       3.496   5.793  -1.097  0.00  0.00    +0.112 A 
ATOM     27  C   UNL     1       3.971   7.077  -0.862  0.00  0.00    +0.077 A 
ATOM     28 CL   UNL     1       5.118   7.418   0.430  0.00  0.00    -0.081 Cl
ATOM     29  C   UNL     1       3.800   7.962  -1.920  0.00  0.00    +0.016 A 
ATOM     30  C   UNL     1       3.409   7.459  -3.155  0.00  0.00    +0.037 A 
ENDBRANCH  22  24
ENDBRANCH   3  21
BRANCH   1  32
ATOM     31  C   UNL     1       7.003   5.884 -10.465  0.00  0.00    +0.252 C 
ATOM     32  O   UNL     1       6.476   5.995  -9.167  0.00  0.00    -0.471 OA
ENDBRANCH   1  32
TORSDOF 6
ENDMDL
MODEL 9
REMARK VINA RESULT:      -8.5      2.968      5.379
REMARK  Name = 
REMARK  6 active torsions:
REMARK  status: ('A' for Active; 'I' for Inactive)
REMARK    1  A    between atoms: O_2  and  C_3
REMARK    2  A    between atoms: C_6  and  N_7
REMARK    3  A    between atoms: C_8  and  C_10
REMARK    4  A    between atoms: C_13  and  C_14
REMARK    5  A    between atoms: C_21  and  C_22
REMARK    6  A    between atoms: N_24  and  C_25
REMARK                            x       y       z     vdW  Elec       q    Type
REMARK                         _______ _______ _______ _____ _____    ______ ____
ROOT
ATOM      1  C   UNL     1      -1.773   5.377  -3.566  0.00  0.00    +0.139 A 
ATOM      2  C   UNL     1      -0.413   5.170  -3.768  0.00  0.00    +0.043 A 
ATOM      3  C   UNL     1       0.136   5.240  -5.043  0.00  0.00    +0.074 A 
ATOM      4  C   UNL     1      -0.605   5.759  -6.099  0.00  0.00    +0.078 A 
ATOM      5  C   UNL     1      -1.913   6.124  -5.810  0.00  0.00    +0.020 A 
ATOM      6  C   UNL     1      -2.503   5.922  -4.591  0.00  0.00    +0.038 A 
ENDROOT
BRANCH   4   7
ATOM      7  N   UNL     1      -0.221   5.257  -7.384  0.00  0.00    -0.175 NA
ATOM      8  C   UNL     1       0.363   6.062  -8.386  0.00  0.00    +0.269 C 
ATOM      9  O   UNL     1       1.082   7.022  -7.985  0.00  0.00    -0.268 OA
BRANCH   8  10
ATOM     10  C   UNL     1       0.008   5.967  -9.807  0.00  0.00    +0.055 A 
ATOM     11  C   UNL     1       0.525   6.928 -10.662  0.00  0.00    +0.005 A 
ATOM     12  C   UNL     1       0.762   6.665 -12.005  0.00  0.00    +0.008 A 
ATOM     13  C   UNL     1       0.893   5.340 -12.402  0.00  0.00    +0.087 A 
ATOM     14  C   UNL     1       0.202   4.403 -11.654  0.00  0.00    +0.008 A 
ATOM     15  C   UNL     1      -0.088   4.684 -10.325  0.00  0.00    +0.005 A 
BRANCH  13  16
ATOM     16  C   UNL     1       1.783   4.975 -13.491  0.00  0.00    +0.376 C 
ATOM     17  N   UNL     1       3.140   5.413 -13.410  0.00  0.00    -0.179 N 
ATOM     18  C   UNL     1       3.742   5.462 -12.080  0.00  0.00    +0.254 C 
ATOM     19  C   UNL     1       3.639   6.386 -14.377  0.00  0.00    +0.254 C 
ATOM     20  N   UNL     1       1.327   4.766 -14.689  0.00  0.00    +0.193 NA
ENDBRANCH  13  16
ENDBRANCH   8  10
ENDBRANCH   4   7
BRANCH   3  21
ATOM     21  C   UNL     1       1.595   5.380  -5.148  0.00  0.00    +0.272 C 
ATOM     22  N   UNL     1       2.321   6.409  -4.513  0.00  0.00    -0.157 NA
ATOM     23  O   UNL     1       2.270   4.367  -5.506  0.00  0.00    -0.268 OA
BRANCH  22  24
ATOM     24  C   UNL     1       3.497   6.204  -3.738  0.00  0.00    +0.155 A 
ATOM     25  N   UNL     1       4.215   7.315  -3.438  0.00  0.00    -0.226 NA
ATOM     26  C   UNL     1       4.860   7.449  -2.253  0.00  0.00    +0.112 A 
ATOM     27  C   UNL     1       4.551   6.638  -1.167  0.00  0.00    +0.077 A 
ATOM     28 CL   UNL     1       4.374   7.294   0.457  0.00  0.00    -0.081 Cl
ATOM     29  C   UNL     1       4.018   5.399  -1.501  0.00  0.00    +0.016 A 
ATOM     30  C   UNL     1       3.628   5.173  -2.816  0.00  0.00    +0.037 A 
ENDBRANCH  22  24
ENDBRANCH   3  21
BRANCH   1  32
ATOM     31  C   UNL     1      -1.735   5.804  -1.159  0.00  0.00    +0.252 C 
ATOM     32  O   UNL     1      -2.265   5.170  -2.295  0.00  0.00    -0.471 OA
ENDBRANCH   1  32
TORSDOF 6
ENDMDL
