MODEL 1
REMARK VINA RESULT:      -8.6      0.000      0.000
REMARK  Name = 
REMARK  6 active torsions:
REMARK  status: ('A' for Active; 'I' for Inactive)
REMARK    1  A    between atoms: C_2  and  C_4
REMARK    2  A    between atoms: C_4  and  O_6
REMARK    3  A    between atoms: O_6  and  C_7
REMARK    4  A    between atoms: C_7  and  C_8
REMARK    5  A    between atoms: C_8  and  C_10
REMARK    6  A    between atoms: C_12  and  C_13
REMARK                            x       y       z     vdW  Elec       q    Type
REMARK                         _______ _______ _______ _____ _____    ______ ____
ROOT
ATOM      1  C   UNL     1       2.004   6.082  -4.346  0.00  0.00    +0.174 C 
ATOM      2  C   UNL     1       2.162   5.786  -5.681  0.00  0.00    +0.034 C 
ATOM      3  C   UNL     1       3.778   5.925  -5.658  0.00  0.00    +0.005 C 
ATOM      4  C   UNL     1       3.831   5.206  -7.177  0.00  0.00    +0.004 C 
ATOM      5  C   UNL     1       4.180   6.687  -7.884  0.00  0.00    +0.038 C 
ATOM      6  C   UNL     1       2.737   7.508  -7.479  0.00  0.00    +0.153 C 
ATOM      7  O   UNL     1       2.072   7.474  -8.839  0.00  0.00    -0.223 OA
ATOM      8  C   UNL     1       3.893   6.148  -9.362  0.00  0.00    +0.036 C 
ATOM      9  C   UNL     1       5.149   5.330  -9.482  0.00  0.00    -0.038 C 
ATOM     10  C   UNL     1       6.085   5.610 -10.382  0.00  0.00    +0.034 C 
ATOM     11  C   UNL     1       6.205   6.974 -10.881  0.00  0.00    +0.195 C 
ATOM     12  C   UNL     1       4.986   7.754 -10.913  0.00  0.00    +0.038 C 
ATOM     13  O   UNL     1       7.046   7.165 -11.814  0.00  0.00    -0.287 OA
ATOM     14  C   UNL     1       5.533   4.287  -8.482  0.00  0.00    +0.022 C 
ATOM     15  C   UNL     1       2.799   5.176  -9.421  0.00  0.00    +0.009 C 
ATOM     16  C   UNL     1       3.950   7.193 -10.347  0.00  0.00    -0.020 C 
ATOM     17  C   UNL     1       5.382   4.809  -7.054  0.00  0.00    +0.004 C 
ATOM     18  C   UNL     1       3.849   4.532  -4.852  0.00  0.00    +0.033 C 
ATOM     19  C   UNL     1       1.847   4.285  -5.839  0.00  0.00    +0.003 C 
ATOM     20  C   UNL     1       1.826   6.257  -6.952  0.00  0.00    +0.036 C 
ATOM     21  C   UNL     1       2.975   5.015  -3.542  0.00  0.00    +0.149 C 
ATOM     22  O   UNL     1       4.001   6.089  -3.203  0.00  0.00    -0.330 OA
ATOM     23  C   UNL     1       2.844   6.686  -2.395  0.00  0.00    +0.235 C 
ATOM     24  O   UNL     1       2.328   7.267  -3.720  0.00  0.00    -0.326 OA
ENDROOT
BRANCH  23  25
ATOM     25  C   UNL     1       3.661   8.072  -1.962  0.00  0.00    +0.057 C 
ATOM     26  C   UNL     1       2.748   8.430  -0.787  0.00  0.00    +0.005 C 
ATOM     27  C   UNL     1       3.404   8.480   0.531  0.00  0.00    +0.000 C 
ATOM     28  C   UNL     1       4.187   7.293   0.958  0.00  0.00    +0.000 C 
ATOM     29  C   UNL     1       4.794   6.640  -0.246  0.00  0.00    +0.000 C 
ATOM     30  C   UNL     1       4.943   7.667  -1.330  0.00  0.00    +0.005 C 
ENDBRANCH  23  25
BRANCH   1  31
ATOM     31  C   UNL     1       0.654   5.724  -3.789  0.00  0.00    +0.221 C 
ATOM     32  O   UNL     1      -0.337   6.364  -4.144  0.00  0.00    -0.290 OA
BRANCH  31  33
ATOM     33  C   UNL     1       0.415   4.922  -2.584  0.00  0.00    +0.275 C 
BRANCH  33  34
ATOM     34  O   UNL     1      -0.852   5.068  -2.012  0.00  0.00    -0.440 OA
BRANCH  34  35
ATOM     35  C   UNL     1      -0.986   5.852  -0.892  0.00  0.00    +0.317 C 
ATOM     36  O   UNL     1       0.049   6.140  -0.245  0.00  0.00    -0.250 OA
BRANCH  35  38
ATOM     37  C   UNL     1      -2.975   6.876  -1.865  0.00  0.00    +0.012 C 
ATOM     38  C   UNL     1      -2.166   6.731  -0.619  0.00  0.00    +0.099 C 
ATOM     39  C   UNL     1      -1.577   8.062  -0.169  0.00  0.00    +0.012 C 
ENDBRANCH  35  38
ENDBRANCH  34  35
ENDBRANCH  33  34
ENDBRANCH  31  33
ENDBRANCH   1  31
TORSDOF 6
ENDMDL
MODEL 2
REMARK VINA RESULT:      -8.6      2.316      8.837
REMARK  Name = 
REMARK  6 active torsions:
REMARK  status: ('A' for Active; 'I' for Inactive)
REMARK    1  A    between atoms: C_2  and  C_4
REMARK    2  A    between atoms: C_4  and  O_6
REMARK    3  A    between atoms: O_6  and  C_7
REMARK    4  A    between atoms: C_7  and  C_8
REMARK    5  A    between atoms: C_8  and  C_10
REMARK    6  A    between atoms: C_12  and  C_13
REMARK                            x       y       z     vdW  Elec       q    Type
REMARK                         _______ _______ _______ _____ _____    ______ ____
ROOT
ATOM      1  C   UNL     1       3.331   5.306  -7.394  0.00  0.00    +0.174 C 
ATOM      2  C   UNL     1       3.780   5.459  -6.102  0.00  0.00    +0.034 C 
ATOM      3  C   UNL     1       2.307   5.721  -5.478  0.00  0.00    +0.005 C 
ATOM      4  C   UNL     1       2.955   5.523  -3.940  0.00  0.00    +0.004 C 
ATOM      5  C   UNL     1       2.854   7.175  -3.666  0.00  0.00    +0.038 C 
ATOM      6  C   UNL     1       3.931   7.700  -4.886  0.00  0.00    +0.153 C 
ATOM      7  O   UNL     1       5.116   8.038  -4.007  0.00  0.00    -0.223 OA
ATOM      8  C   UNL     1       3.782   7.104  -2.365  0.00  0.00    +0.036 C 
ATOM      9  C   UNL     1       2.752   6.477  -1.467  0.00  0.00    -0.038 C 
ATOM     10  C   UNL     1       2.279   7.104  -0.397  0.00  0.00    +0.034 C 
ATOM     11  C   UNL     1       2.302   8.561  -0.359  0.00  0.00    +0.195 C 
ATOM     12  C   UNL     1       3.366   9.204  -1.100  0.00  0.00    +0.038 C 
ATOM     13  O   UNL     1       1.934   9.106   0.728  0.00  0.00    -0.287 OA
ATOM     14  C   UNL     1       2.039   5.209  -1.817  0.00  0.00    +0.022 C 
ATOM     15  C   UNL     1       4.852   6.110  -2.471  0.00  0.00    +0.009 C 
ATOM     16  C   UNL     1       4.090   8.406  -1.841  0.00  0.00    -0.020 C 
ATOM     17  C   UNL     1       1.529   5.241  -3.257  0.00  0.00    +0.004 C 
ATOM     18  C   UNL     1       1.981   4.157  -5.685  0.00  0.00    +0.033 C 
ATOM     19  C   UNL     1       4.224   4.062  -5.623  0.00  0.00    +0.003 C 
ATOM     20  C   UNL     1       4.601   6.274  -5.321  0.00  0.00    +0.036 C 
ATOM     21  C   UNL     1       2.175   4.128  -7.320  0.00  0.00    +0.149 C 
ATOM     22  O   UNL     1       1.039   5.125  -7.514  0.00  0.00    -0.330 OA
ATOM     23  C   UNL     1       1.699   5.337  -8.882  0.00  0.00    +0.235 C 
ATOM     24  O   UNL     1       2.698   6.257  -8.165  0.00  0.00    -0.326 OA
ENDROOT
BRANCH  23  25
ATOM     25  C   UNL     1       0.691   6.581  -9.343  0.00  0.00    +0.057 C 
ATOM     26  C   UNL     1       1.532   7.026 -10.542  0.00  0.00    +0.005 C 
ATOM     27  C   UNL     1       0.860   6.942 -11.851  0.00  0.00    +0.000 C 
ATOM     28  C   UNL     1       0.246   5.645 -12.230  0.00  0.00    +0.000 C 
ATOM     29  C   UNL     1      -0.251   4.953 -10.998  0.00  0.00    +0.000 C 
ATOM     30  C   UNL     1      -0.529   5.983  -9.942  0.00  0.00    +0.005 C 
ENDBRANCH  23  25
BRANCH   1  31
ATOM     31  C   UNL     1       4.329   4.677  -8.326  0.00  0.00    +0.221 C 
ATOM     32  O   UNL     1       4.092   3.570  -8.811  0.00  0.00    -0.290 OA
BRANCH  31  33
ATOM     33  C   UNL     1       5.738   5.068  -8.456  0.00  0.00    +0.275 C 
BRANCH  33  34
ATOM     34  O   UNL     1       6.010   5.992  -9.468  0.00  0.00    -0.440 OA
BRANCH  34  35
ATOM     35  C   UNL     1       7.296   6.097  -9.940  0.00  0.00    +0.317 C 
ATOM     36  O   UNL     1       8.084   5.145  -9.726  0.00  0.00    -0.250 OA
BRANCH  35  38
ATOM     37  C   UNL     1       6.568   7.911 -11.400  0.00  0.00    +0.012 C 
ATOM     38  C   UNL     1       7.715   7.030 -11.032  0.00  0.00    +0.099 C 
ATOM     39  C   UNL     1       8.131   6.129 -12.189  0.00  0.00    +0.012 C 
ENDBRANCH  35  38
ENDBRANCH  34  35
ENDBRANCH  33  34
ENDBRANCH  31  33
ENDBRANCH   1  31
TORSDOF 6
ENDMDL
MODEL 3
REMARK VINA RESULT:      -8.5      1.437      2.011
REMARK  Name = 
REMARK  6 active torsions:
REMARK  status: ('A' for Active; 'I' for Inactive)
REMARK    1  A    between atoms: C_2  and  C_4
REMARK    2  A    between atoms: C_4  and  O_6
REMARK    3  A    between atoms: O_6  and  C_7
REMARK    4  A    between atoms: C_7  and  C_8
REMARK    5  A    between atoms: C_8  and  C_10
REMARK    6  A    between atoms: C_12  and  C_13
REMARK                            x       y       z     vdW  Elec       q    Type
REMARK                         _______ _______ _______ _____ _____    ______ ____
ROOT
ATOM      1  C   UNL     1       2.301   6.102  -3.741  0.00  0.00    +0.174 C 
ATOM      2  C   UNL     1       2.160   5.880  -5.092  0.00  0.00    +0.034 C 
ATOM      3  C   UNL     1       3.753   5.753  -5.373  0.00  0.00    +0.005 C 
ATOM      4  C   UNL     1       3.405   5.145  -6.901  0.00  0.00    +0.004 C 
ATOM      5  C   UNL     1       3.870   6.596  -7.603  0.00  0.00    +0.038 C 
ATOM      6  C   UNL     1       2.688   7.609  -6.897  0.00  0.00    +0.153 C 
ATOM      7  O   UNL     1       1.791   7.781  -8.105  0.00  0.00    -0.223 OA
ATOM      8  C   UNL     1       3.230   6.218  -9.019  0.00  0.00    +0.036 C 
ATOM      9  C   UNL     1       4.283   5.218  -9.409  0.00  0.00    -0.038 C 
ATOM     10  C   UNL     1       5.074   5.405 -10.459  0.00  0.00    +0.034 C 
ATOM     11  C   UNL     1       5.336   6.764 -10.918  0.00  0.00    +0.195 C 
ATOM     12  C   UNL     1       4.284   7.731 -10.685  0.00  0.00    +0.038 C 
ATOM     13  O   UNL     1       6.013   6.881 -11.986  0.00  0.00    -0.287 OA
ATOM     14  C   UNL     1       4.657   4.057  -8.542  0.00  0.00    +0.022 C 
ATOM     15  C   UNL     1       1.993   5.442  -8.906  0.00  0.00    +0.009 C 
ATOM     16  C   UNL     1       3.288   7.307  -9.954  0.00  0.00    -0.020 C 
ATOM     17  C   UNL     1       4.860   4.493  -7.092  0.00  0.00    +0.004 C 
ATOM     18  C   UNL     1       3.728   4.313  -4.651  0.00  0.00    +0.033 C 
ATOM     19  C   UNL     1       1.567   4.465  -5.247  0.00  0.00    +0.003 C 
ATOM     20  C   UNL     1       1.685   6.489  -6.256  0.00  0.00    +0.036 C 
ATOM     21  C   UNL     1       3.203   4.837  -3.180  0.00  0.00    +0.149 C 
ATOM     22  O   UNL     1       4.443   5.703  -3.001  0.00  0.00    -0.330 OA
ATOM     23  C   UNL     1       3.572   6.421  -1.964  0.00  0.00    +0.235 C 
ATOM     24  O   UNL     1       2.932   7.171  -3.142  0.00  0.00    -0.326 OA
ENDROOT
BRANCH  23  25
ATOM     25  C   UNL     1       4.682   7.621  -1.640  0.00  0.00    +0.057 C 
ATOM     26  C   UNL     1       3.665   8.764  -1.594  0.00  0.00    +0.005 C 
ATOM     27  C   UNL     1       3.578   9.480  -0.308  0.00  0.00    +0.000 C 
ATOM     28  C   UNL     1       3.355   8.673   0.917  0.00  0.00    +0.000 C 
ATOM     29  C   UNL     1       4.010   7.336   0.756  0.00  0.00    +0.000 C 
ATOM     30  C   UNL     1       5.131   7.461  -0.234  0.00  0.00    +0.005 C 
ENDBRANCH  23  25
BRANCH   1  31
ATOM     31  C   UNL     1       1.033   5.929  -2.951  0.00  0.00    +0.221 C 
ATOM     32  O   UNL     1       0.842   4.881  -2.334  0.00  0.00    -0.290 OA
BRANCH  31  33
ATOM     33  C   UNL     1      -0.187   6.728  -3.113  0.00  0.00    +0.275 C 
BRANCH  33  34
ATOM     34  O   UNL     1      -1.385   6.023  -2.965  0.00  0.00    -0.440 OA
BRANCH  34  35
ATOM     35  C   UNL     1      -2.122   5.728  -4.086  0.00  0.00    +0.317 C 
ATOM     36  O   UNL     1      -3.196   5.098  -3.939  0.00  0.00    -0.250 OA
BRANCH  35  38
ATOM     37  C   UNL     1      -2.909   7.618  -5.413  0.00  0.00    +0.012 C 
ATOM     38  C   UNL     1      -1.985   6.446  -5.392  0.00  0.00    +0.099 C 
ATOM     39  C   UNL     1      -2.352   5.416  -6.454  0.00  0.00    +0.012 C 
ENDBRANCH  35  38
ENDBRANCH  34  35
ENDBRANCH  33  34
ENDBRANCH  31  33
ENDBRANCH   1  31
TORSDOF 6
ENDMDL
MODEL 4
REMARK VINA RESULT:      -8.4      1.961      3.178
REMARK  Name = 
REMARK  6 active torsions:
REMARK  status: ('A' for Active; 'I' for Inactive)
REMARK    1  A    between atoms: C_2  and  C_4
REMARK    2  A    between atoms: C_4  and  O_6
REMARK    3  A    between atoms: O_6  and  C_7
REMARK    4  A    between atoms: C_7  and  C_8
REMARK    5  A    between atoms: C_8  and  C_10
REMARK    6  A    between atoms: C_12  and  C_13
REMARK                            x       y       z     vdW  Elec       q    Type
REMARK                         _______ _______ _______ _____ _____    ______ ____
ROOT
ATOM      1  C   UNL     1       3.298   6.182  -2.331  0.00  0.00    +0.174 C 
ATOM      2  C   UNL     1       3.027   5.538  -3.517  0.00  0.00    +0.034 C 
ATOM      3  C   UNL     1       3.452   6.794  -4.451  0.00  0.00    +0.005 C 
ATOM      4  C   UNL     1       3.422   5.772  -5.786  0.00  0.00    +0.004 C 
ATOM      5  C   UNL     1       1.989   6.468  -6.309  0.00  0.00    +0.038 C 
ATOM      6  C   UNL     1       0.997   6.027  -4.989  0.00  0.00    +0.153 C 
ATOM      7  O   UNL     1       0.223   4.909  -5.654  0.00  0.00    -0.223 OA
ATOM      8  C   UNL     1       1.713   5.310  -7.377  0.00  0.00    +0.036 C 
ATOM      9  C   UNL     1       2.763   5.746  -8.361  0.00  0.00    -0.038 C 
ATOM     10  C   UNL     1       2.450   6.162  -9.583  0.00  0.00    +0.034 C 
ATOM     11  C   UNL     1       1.128   6.726  -9.824  0.00  0.00    +0.195 C 
ATOM     12  C   UNL     1       0.057   6.229  -8.987  0.00  0.00    +0.038 C 
ATOM     13  O   UNL     1       0.844   7.011 -11.029  0.00  0.00    -0.287 OA
ATOM     14  C   UNL     1       4.197   5.941  -7.981  0.00  0.00    +0.022 C 
ATOM     15  C   UNL     1       2.146   3.988  -6.920  0.00  0.00    +0.009 C 
ATOM     16  C   UNL     1       0.431   5.444  -8.011  0.00  0.00    -0.020 C 
ATOM     17  C   UNL     1       4.320   6.750  -6.690  0.00  0.00    +0.004 C 
ATOM     18  C   UNL     1       4.993   6.493  -4.091  0.00  0.00    +0.033 C 
ATOM     19  C   UNL     1       4.118   4.463  -3.694  0.00  0.00    +0.003 C 
ATOM     20  C   UNL     1       1.974   4.959  -4.230  0.00  0.00    +0.036 C 
ATOM     21  C   UNL     1       4.861   6.702  -2.462  0.00  0.00    +0.149 C 
ATOM     22  O   UNL     1       4.440   8.155  -2.643  0.00  0.00    -0.330 OA
ATOM     23  C   UNL     1       3.903   7.990  -1.216  0.00  0.00    +0.235 C 
ATOM     24  O   UNL     1       2.677   7.312  -1.846  0.00  0.00    -0.326 OA
ENDROOT
BRANCH  23  25
ATOM     25  C   UNL     1       3.193   9.495  -1.147  0.00  0.00    +0.057 C 
ATOM     26  C   UNL     1       2.001   9.065  -0.289  0.00  0.00    +0.005 C 
ATOM     27  C   UNL     1       1.889   9.734   1.019  0.00  0.00    +0.000 C 
ATOM     28  C   UNL     1       3.076   9.707   1.911  0.00  0.00    +0.000 C 
ATOM     29  C   UNL     1       4.321   9.716   1.080  0.00  0.00    +0.000 C 
ATOM     30  C   UNL     1       4.013  10.346  -0.248  0.00  0.00    +0.005 C 
ENDBRANCH  23  25
BRANCH   1  31
ATOM     31  C   UNL     1       3.394   5.270  -1.140  0.00  0.00    +0.221 C 
ATOM     32  O   UNL     1       4.498   4.869  -0.770  0.00  0.00    -0.290 OA
BRANCH  31  33
ATOM     33  C   UNL     1       2.285   4.499  -0.566  0.00  0.00    +0.275 C 
BRANCH  33  34
ATOM     34  O   UNL     1       1.196   5.256  -0.127  0.00  0.00    -0.440 OA
BRANCH  34  35
ATOM     35  C   UNL     1       0.160   5.493  -0.998  0.00  0.00    +0.317 C 
ATOM     36  O   UNL     1      -0.203   4.559  -1.752  0.00  0.00    -0.250 OA
BRANCH  35  38
ATOM     37  C   UNL     1      -0.974   6.933   0.612  0.00  0.00    +0.012 C 
ATOM     38  C   UNL     1      -0.836   6.597  -0.836  0.00  0.00    +0.099 C 
ATOM     39  C   UNL     1      -2.136   6.052  -1.416  0.00  0.00    +0.012 C 
ENDBRANCH  35  38
ENDBRANCH  34  35
ENDBRANCH  33  34
ENDBRANCH  31  33
ENDBRANCH   1  31
TORSDOF 6
ENDMDL
MODEL 5
REMARK VINA RESULT:      -8.2      1.702      2.860
REMARK  Name = 
REMARK  6 active torsions:
REMARK  status: ('A' for Active; 'I' for Inactive)
REMARK    1  A    between atoms: C_2  and  C_4
REMARK    2  A    between atoms: C_4  and  O_6
REMARK    3  A    between atoms: O_6  and  C_7
REMARK    4  A    between atoms: C_7  and  C_8
REMARK    5  A    between atoms: C_8  and  C_10
REMARK    6  A    between atoms: C_12  and  C_13
REMARK                            x       y       z     vdW  Elec       q    Type
REMARK                         _______ _______ _______ _____ _____    ______ ____
ROOT
ATOM      1  C   UNL     1       2.009   6.570  -1.647  0.00  0.00    +0.174 C 
ATOM      2  C   UNL     1       1.945   5.982  -2.890  0.00  0.00    +0.034 C 
ATOM      3  C   UNL     1       3.315   6.662  -3.430  0.00  0.00    +0.005 C 
ATOM      4  C   UNL     1       3.287   5.607  -4.738  0.00  0.00    +0.004 C 
ATOM      5  C   UNL     1       2.816   6.854  -5.756  0.00  0.00    +0.038 C 
ATOM      6  C   UNL     1       1.308   7.214  -5.035  0.00  0.00    +0.153 C 
ATOM      7  O   UNL     1       0.407   6.575  -6.069  0.00  0.00    -0.223 OA
ATOM      8  C   UNL     1       2.424   5.856  -6.943  0.00  0.00    +0.036 C 
ATOM      9  C   UNL     1       3.834   5.515  -7.338  0.00  0.00    -0.038 C 
ATOM     10  C   UNL     1       4.324   5.831  -8.532  0.00  0.00    +0.034 C 
ATOM     11  C   UNL     1       3.750   6.955  -9.261  0.00  0.00    +0.195 C 
ATOM     12  C   UNL     1       2.351   7.231  -9.013  0.00  0.00    +0.038 C 
ATOM     13  O   UNL     1       4.184   7.148 -10.439  0.00  0.00    -0.287 OA
ATOM     14  C   UNL     1       4.843   4.992  -6.365  0.00  0.00    +0.022 C 
ATOM     15  C   UNL     1       1.846   4.596  -6.472  0.00  0.00    +0.009 C 
ATOM     16  C   UNL     1       1.807   6.535  -8.049  0.00  0.00    -0.020 C 
ATOM     17  C   UNL     1       4.844   5.812  -5.076  0.00  0.00    +0.004 C 
ATOM     18  C   UNL     1       4.144   5.664  -2.475  0.00  0.00    +0.033 C 
ATOM     19  C   UNL     1       2.244   4.483  -2.683  0.00  0.00    +0.003 C 
ATOM     20  C   UNL     1       1.147   5.932  -4.035  0.00  0.00    +0.036 C 
ATOM     21  C   UNL     1       3.496   6.170  -1.048  0.00  0.00    +0.149 C 
ATOM     22  O   UNL     1       4.041   7.578  -1.254  0.00  0.00    -0.330 OA
ATOM     23  C   UNL     1       2.974   7.948  -0.216  0.00  0.00    +0.235 C 
ATOM     24  O   UNL     1       1.961   7.919  -1.370  0.00  0.00    -0.326 OA
ENDROOT
BRANCH  23  25
ATOM     25  C   UNL     1       3.231   9.591  -0.316  0.00  0.00    +0.057 C 
ATOM     26  C   UNL     1       2.027   9.989   0.540  0.00  0.00    +0.005 C 
ATOM     27  C   UNL     1       2.346  10.731   1.773  0.00  0.00    +0.000 C 
ATOM     28  C   UNL     1       3.338  10.133   2.701  0.00  0.00    +0.000 C 
ATOM     29  C   UNL     1       4.351   9.361   1.913  0.00  0.00    +0.000 C 
ATOM     30  C   UNL     1       4.412   9.921   0.522  0.00  0.00    +0.005 C 
ENDBRANCH  23  25
BRANCH   1  31
ATOM     31  C   UNL     1       1.104   5.948  -0.620  0.00  0.00    +0.221 C 
ATOM     32  O   UNL     1       1.370   4.831  -0.176  0.00  0.00    -0.290 OA
BRANCH  31  33
ATOM     33  C   UNL     1      -0.275   6.362  -0.337  0.00  0.00    +0.275 C 
BRANCH  33  34
ATOM     34  O   UNL     1      -0.971   6.902  -1.422  0.00  0.00    -0.440 OA
BRANCH  34  35
ATOM     35  C   UNL     1      -1.870   6.108  -2.092  0.00  0.00    +0.317 C 
ATOM     36  O   UNL     1      -2.309   5.089  -1.507  0.00  0.00    -0.250 OA
BRANCH  35  38
ATOM     37  C   UNL     1      -2.604   5.548  -4.350  0.00  0.00    +0.012 C 
ATOM     38  C   UNL     1      -2.684   6.565  -3.261  0.00  0.00    +0.099 C 
ATOM     39  C   UNL     1      -2.068   7.895  -3.681  0.00  0.00    +0.012 C 
ENDBRANCH  35  38
ENDBRANCH  34  35
ENDBRANCH  33  34
ENDBRANCH  31  33
ENDBRANCH   1  31
TORSDOF 6
ENDMDL
MODEL 6
REMARK VINA RESULT:      -8.0      2.922      4.123
REMARK  Name = 
REMARK  6 active torsions:
REMARK  status: ('A' for Active; 'I' for Inactive)
REMARK    1  A    between atoms: C_2  and  C_4
REMARK    2  A    between atoms: C_4  and  O_6
REMARK    3  A    between atoms: O_6  and  C_7
REMARK    4  A    between atoms: C_7  and  C_8
REMARK    5  A    between atoms: C_8  and  C_10
REMARK    6  A    between atoms: C_12  and  C_13
REMARK                            x       y       z     vdW  Elec       q    Type
REMARK                         _______ _______ _______ _____ _____    ______ ____
ROOT
ATOM      1  C   UNL     1       2.239   5.094  -7.292  0.00  0.00    +0.174 C 
ATOM      2  C   UNL     1       1.752   4.967  -8.573  0.00  0.00    +0.034 C 
ATOM      3  C   UNL     1       2.934   5.846  -9.253  0.00  0.00    +0.005 C 
ATOM      4  C   UNL     1       2.427   5.304 -10.762  0.00  0.00    +0.004 C 
ATOM      5  C   UNL     1       1.757   6.805 -11.095  0.00  0.00    +0.038 C 
ATOM      6  C   UNL     1       0.576   6.835  -9.859  0.00  0.00    +0.153 C 
ATOM      7  O   UNL     1      -0.644   6.555 -10.710  0.00  0.00    -0.223 OA
ATOM      8  C   UNL     1       0.948   6.261 -12.362  0.00  0.00    +0.036 C 
ATOM      9  C   UNL     1       2.138   6.133 -13.271  0.00  0.00    -0.038 C 
ATOM     10  C   UNL     1       2.258   6.858 -14.377  0.00  0.00    +0.034 C 
ATOM     11  C   UNL     1       1.570   8.141 -14.463  0.00  0.00    +0.195 C 
ATOM     12  C   UNL     1       0.340   8.259 -13.710  0.00  0.00    +0.038 C 
ATOM     13  O   UNL     1       1.633   8.744 -15.579  0.00  0.00    -0.287 OA
ATOM     14  C   UNL     1       3.357   5.348 -12.902  0.00  0.00    +0.022 C 
ATOM     15  C   UNL     1       0.453   4.893 -12.188  0.00  0.00    +0.009 C 
ATOM     16  C   UNL     1       0.071   7.254 -12.919  0.00  0.00    -0.020 C 
ATOM     17  C   UNL     1       3.815   5.674 -11.481  0.00  0.00    +0.004 C 
ATOM     18  C   UNL     1       3.942   4.614  -9.004  0.00  0.00    +0.033 C 
ATOM     19  C   UNL     1       1.991   3.502  -8.991  0.00  0.00    +0.003 C 
ATOM     20  C   UNL     1       0.639   5.282  -9.355  0.00  0.00    +0.036 C 
ATOM     21  C   UNL     1       3.804   4.572  -7.363  0.00  0.00    +0.149 C 
ATOM     22  O   UNL     1       4.360   5.986  -7.241  0.00  0.00    -0.330 OA
ATOM     23  C   UNL     1       3.696   5.934  -5.860  0.00  0.00    +0.235 C 
ATOM     24  O   UNL     1       2.377   6.264  -6.575  0.00  0.00    -0.326 OA
ENDROOT
BRANCH  23  25
ATOM     25  C   UNL     1       4.028   7.521  -5.474  0.00  0.00    +0.057 C 
ATOM     26  C   UNL     1       3.013   7.619  -4.334  0.00  0.00    +0.005 C 
ATOM     27  C   UNL     1       3.579   7.919  -3.007  0.00  0.00    +0.000 C 
ATOM     28  C   UNL     1       4.678   7.052  -2.514  0.00  0.00    +0.000 C 
ATOM     29  C   UNL     1       5.495   6.578  -3.675  0.00  0.00    +0.000 C 
ATOM     30  C   UNL     1       5.352   7.560  -4.802  0.00  0.00    +0.005 C 
ENDBRANCH  23  25
BRANCH   1  31
ATOM     31  C   UNL     1       1.652   4.122  -6.308  0.00  0.00    +0.221 C 
ATOM     32  O   UNL     1       2.128   2.990  -6.216  0.00  0.00    -0.290 OA
BRANCH  31  33
ATOM     33  C   UNL     1       0.331   4.238  -5.679  0.00  0.00    +0.275 C 
BRANCH  33  34
ATOM     34  O   UNL     1       0.284   5.033  -4.531  0.00  0.00    -0.440 OA
BRANCH  34  35
ATOM     35  C   UNL     1      -0.821   5.821  -4.317  0.00  0.00    +0.317 C 
ATOM     36  O   UNL     1      -1.208   5.988  -3.135  0.00  0.00    -0.250 OA
BRANCH  35  38
ATOM     37  C   UNL     1      -1.783   8.048  -4.568  0.00  0.00    +0.012 C 
ATOM     38  C   UNL     1      -1.339   6.825  -5.298  0.00  0.00    +0.099 C 
ATOM     39  C   UNL     1      -2.499   6.133  -6.003  0.00  0.00    +0.012 C 
ENDBRANCH  35  38
ENDBRANCH  34  35
ENDBRANCH  33  34
ENDBRANCH  31  33
ENDBRANCH   1  31
TORSDOF 6
ENDMDL
MODEL 7
REMARK VINA RESULT:      -7.4      2.424      9.144
REMARK  Name = 
REMARK  6 active torsions:
REMARK  status: ('A' for Active; 'I' for Inactive)
REMARK    1  A    between atoms: C_2  and  C_4
REMARK    2  A    between atoms: C_4  and  O_6
REMARK    3  A    between atoms: O_6  and  C_7
REMARK    4  A    between atoms: C_7  and  C_8
REMARK    5  A    between atoms: C_8  and  C_10
REMARK    6  A    between atoms: C_12  and  C_13
REMARK                            x       y       z     vdW  Elec       q    Type
REMARK                         _______ _______ _______ _____ _____    ______ ____
ROOT
ATOM      1  C   UNL     1       3.437   5.934  -9.131  0.00  0.00    +0.174 C 
ATOM      2  C   UNL     1       4.017   6.046  -7.888  0.00  0.00    +0.034 C 
ATOM      3  C   UNL     1       2.938   5.084  -7.151  0.00  0.00    +0.005 C 
ATOM      4  C   UNL     1       3.949   5.029  -5.809  0.00  0.00    +0.004 C 
ATOM      5  C   UNL     1       2.917   6.048  -4.967  0.00  0.00    +0.038 C 
ATOM      6  C   UNL     1       3.051   7.428  -5.968  0.00  0.00    +0.153 C 
ATOM      7  O   UNL     1       3.945   8.264  -5.077  0.00  0.00    -0.223 OA
ATOM      8  C   UNL     1       3.989   6.327  -3.814  0.00  0.00    +0.036 C 
ATOM      9  C   UNL     1       3.866   4.982  -3.152  0.00  0.00    -0.038 C 
ATOM     10  C   UNL     1       3.413   4.849  -1.911  0.00  0.00    +0.034 C 
ATOM     11  C   UNL     1       2.530   5.872  -1.364  0.00  0.00    +0.195 C 
ATOM     12  C   UNL     1       2.710   7.214  -1.875  0.00  0.00    +0.038 C 
ATOM     13  O   UNL     1       2.210   5.750  -0.140  0.00  0.00    -0.287 OA
ATOM     14  C   UNL     1       4.042   3.696  -3.896  0.00  0.00    +0.022 C 
ATOM     15  C   UNL     1       5.367   6.384  -4.306  0.00  0.00    +0.009 C 
ATOM     16  C   UNL     1       3.541   7.321  -2.879  0.00  0.00    -0.020 C 
ATOM     17  C   UNL     1       3.262   3.707  -5.210  0.00  0.00    +0.004 C 
ATOM     18  C   UNL     1       3.622   3.821  -7.881  0.00  0.00    +0.033 C 
ATOM     19  C   UNL     1       5.343   5.262  -7.949  0.00  0.00    +0.003 C 
ATOM     20  C   UNL     1       4.318   6.990  -6.904  0.00  0.00    +0.036 C 
ATOM     21  C   UNL     1       3.345   4.312  -9.428  0.00  0.00    +0.149 C 
ATOM     22  O   UNL     1       1.837   4.282  -9.212  0.00  0.00    -0.330 OA
ATOM     23  C   UNL     1       1.822   5.194 -10.443  0.00  0.00    +0.235 C 
ATOM     24  O   UNL     1       2.172   6.347  -9.491  0.00  0.00    -0.326 OA
ENDROOT
BRANCH  23  25
ATOM     25  C   UNL     1       0.183   5.484 -10.396  0.00  0.00    +0.057 C 
ATOM     26  C   UNL     1       0.292   7.008 -10.494  0.00  0.00    +0.005 C 
ATOM     27  C   UNL     1      -0.353   7.613 -11.673  0.00  0.00    +0.000 C 
ATOM     28  C   UNL     1       0.014   7.081 -13.009  0.00  0.00    +0.000 C 
ATOM     29  C   UNL     1       0.325   5.621 -12.893  0.00  0.00    +0.000 C 
ATOM     30  C   UNL     1      -0.394   5.065 -11.698  0.00  0.00    +0.005 C 
ENDBRANCH  23  25
BRANCH   1  31
ATOM     31  C   UNL     1       4.313   6.390 -10.265  0.00  0.00    +0.221 C 
ATOM     32  O   UNL     1       4.468   7.595 -10.465  0.00  0.00    -0.290 OA
BRANCH  31  33
ATOM     33  C   UNL     1       4.732   5.564 -11.403  0.00  0.00    +0.275 C 
BRANCH  33  34
ATOM     34  O   UNL     1       6.005   4.998 -11.293  0.00  0.00    -0.440 OA
BRANCH  34  35
ATOM     35  C   UNL     1       6.966   5.349 -12.209  0.00  0.00    +0.317 C 
ATOM     36  O   UNL     1       6.780   5.037 -13.410  0.00  0.00    -0.250 OA
BRANCH  35  38
ATOM     37  C   UNL     1       9.342   5.893 -12.317  0.00  0.00    +0.012 C 
ATOM     38  C   UNL     1       7.986   6.421 -11.986  0.00  0.00    +0.099 C 
ATOM     39  C   UNL     1       7.865   6.786 -10.511  0.00  0.00    +0.012 C 
ENDBRANCH  35  38
ENDBRANCH  34  35
ENDBRANCH  33  34
ENDBRANCH  31  33
ENDBRANCH   1  31
TORSDOF 6
ENDMDL
MODEL 8
REMARK VINA RESULT:      -7.4      1.829      3.045
REMARK  Name = 
REMARK  6 active torsions:
REMARK  status: ('A' for Active; 'I' for Inactive)
REMARK    1  A    between atoms: C_2  and  C_4
REMARK    2  A    between atoms: C_4  and  O_6
REMARK    3  A    between atoms: O_6  and  C_7
REMARK    4  A    between atoms: C_7  and  C_8
REMARK    5  A    between atoms: C_8  and  C_10
REMARK    6  A    between atoms: C_12  and  C_13
REMARK                            x       y       z     vdW  Elec       q    Type
REMARK                         _______ _______ _______ _____ _____    ______ ____
ROOT
ATOM      1  C   UNL     1       2.107   6.551  -1.661  0.00  0.00    +0.174 C 
ATOM      2  C   UNL     1       2.023   5.967  -2.905  0.00  0.00    +0.034 C 
ATOM      3  C   UNL     1       3.380   6.655  -3.467  0.00  0.00    +0.005 C 
ATOM      4  C   UNL     1       3.333   5.605  -4.778  0.00  0.00    +0.004 C 
ATOM      5  C   UNL     1       2.840   6.855  -5.783  0.00  0.00    +0.038 C 
ATOM      6  C   UNL     1       1.344   7.207  -5.033  0.00  0.00    +0.153 C 
ATOM      7  O   UNL     1       0.427   6.568  -6.054  0.00  0.00    -0.223 OA
ATOM      8  C   UNL     1       2.431   5.860  -6.967  0.00  0.00    +0.036 C 
ATOM      9  C   UNL     1       3.835   5.526  -7.388  0.00  0.00    -0.038 C 
ATOM     10  C   UNL     1       4.303   5.848  -8.588  0.00  0.00    +0.034 C 
ATOM     11  C   UNL     1       3.712   6.973  -9.303  0.00  0.00    +0.195 C 
ATOM     12  C   UNL     1       2.316   7.243  -9.029  0.00  0.00    +0.038 C 
ATOM     13  O   UNL     1       4.125   7.172 -10.488  0.00  0.00    -0.287 OA
ATOM     14  C   UNL     1       4.862   5.002  -6.435  0.00  0.00    +0.022 C 
ATOM     15  C   UNL     1       1.866   4.596  -6.490  0.00  0.00    +0.009 C 
ATOM     16  C   UNL     1       1.793   6.542  -8.058  0.00  0.00    -0.020 C 
ATOM     17  C   UNL     1       4.883   5.817  -5.143  0.00  0.00    +0.004 C 
ATOM     18  C   UNL     1       4.230   5.655  -2.531  0.00  0.00    +0.033 C 
ATOM     19  C   UNL     1       2.331   4.469  -2.710  0.00  0.00    +0.003 C 
ATOM     20  C   UNL     1       1.205   5.919  -4.036  0.00  0.00    +0.036 C 
ATOM     21  C   UNL     1       3.605   6.153  -1.090  0.00  0.00    +0.149 C 
ATOM     22  O   UNL     1       4.141   7.564  -1.299  0.00  0.00    -0.330 OA
ATOM     23  C   UNL     1       3.092   7.926  -0.242  0.00  0.00    +0.235 C 
ATOM     24  O   UNL     1       2.059   7.899  -1.378  0.00  0.00    -0.326 OA
ENDROOT
BRANCH  23  25
ATOM     25  C   UNL     1       3.342   9.571  -0.339  0.00  0.00    +0.057 C 
ATOM     26  C   UNL     1       2.074   9.966   0.421  0.00  0.00    +0.005 C 
ATOM     27  C   UNL     1       2.293  10.722   1.666  0.00  0.00    +0.000 C 
ATOM     28  C   UNL     1       3.219  10.142   2.671  0.00  0.00    +0.000 C 
ATOM     29  C   UNL     1       4.295   9.373   1.969  0.00  0.00    +0.000 C 
ATOM     30  C   UNL     1       4.454   9.920   0.580  0.00  0.00    +0.005 C 
ENDBRANCH  23  25
BRANCH   1  31
ATOM     31  C   UNL     1       1.222   5.921  -0.621  0.00  0.00    +0.221 C 
ATOM     32  O   UNL     1       1.476   4.786  -0.217  0.00  0.00    -0.290 OA
BRANCH  31  33
ATOM     33  C   UNL     1      -0.136   6.359  -0.279  0.00  0.00    +0.275 C 
BRANCH  33  34
ATOM     34  O   UNL     1      -0.272   6.953   0.979  0.00  0.00    -0.440 OA
BRANCH  34  35
ATOM     35  C   UNL     1      -0.876   8.184   1.067  0.00  0.00    +0.317 C 
ATOM     36  O   UNL     1      -1.356   8.684   0.021  0.00  0.00    -0.250 OA
BRANCH  35  38
ATOM     37  C   UNL     1      -1.696  10.222   2.127  0.00  0.00    +0.012 C 
ATOM     38  C   UNL     1      -1.387   8.778   2.342  0.00  0.00    +0.099 C 
ATOM     39  C   UNL     1      -0.262   8.584   3.351  0.00  0.00    +0.012 C 
ENDBRANCH  35  38
ENDBRANCH  34  35
ENDBRANCH  33  34
ENDBRANCH  31  33
ENDBRANCH   1  31
TORSDOF 6
ENDMDL
MODEL 9
REMARK VINA RESULT:      -6.9      2.696      5.116
REMARK  Name = 
REMARK  6 active torsions:
REMARK  status: ('A' for Active; 'I' for Inactive)
REMARK    1  A    between atoms: C_2  and  C_4
REMARK    2  A    between atoms: C_4  and  O_6
REMARK    3  A    between atoms: O_6  and  C_7
REMARK    4  A    between atoms: C_7  and  C_8
REMARK    5  A    between atoms: C_8  and  C_10
REMARK    6  A    between atoms: C_12  and  C_13
REMARK                            x       y       z     vdW  Elec       q    Type
REMARK                         _______ _______ _______ _____ _____    ______ ____
ROOT
ATOM      1  C   UNL     1       3.439   6.867  -1.626  0.00  0.00    +0.174 C 
ATOM      2  C   UNL     1       3.142   6.060  -2.700  0.00  0.00    +0.034 C 
ATOM      3  C   UNL     1       3.234   7.254  -3.794  0.00  0.00    +0.005 C 
ATOM      4  C   UNL     1       3.220   6.097  -5.013  0.00  0.00    +0.004 C 
ATOM      5  C   UNL     1       1.637   6.496  -5.398  0.00  0.00    +0.038 C 
ATOM      6  C   UNL     1       0.898   6.056  -3.921  0.00  0.00    +0.153 C 
ATOM      7  O   UNL     1       0.253   4.763  -4.371  0.00  0.00    -0.223 OA
ATOM      8  C   UNL     1       1.438   5.197  -6.309  0.00  0.00    +0.036 C 
ATOM      9  C   UNL     1       2.274   5.679  -7.462  0.00  0.00    -0.038 C 
ATOM     10  C   UNL     1       1.752   5.900  -8.663  0.00  0.00    +0.034 C 
ATOM     11  C   UNL     1       0.334   6.219  -8.773  0.00  0.00    +0.195 C 
ATOM     12  C   UNL     1      -0.530   5.657  -7.757  0.00  0.00    +0.038 C 
ATOM     13  O   UNL     1      -0.135   6.319  -9.950  0.00  0.00    -0.287 OA
ATOM     14  C   UNL     1       3.688   6.138  -7.299  0.00  0.00    +0.022 C 
ATOM     15  C   UNL     1       2.140   4.018  -5.797  0.00  0.00    +0.009 C 
ATOM     16  C   UNL     1       0.086   5.055  -6.773  0.00  0.00    -0.020 C 
ATOM     17  C   UNL     1       3.825   7.096  -6.116  0.00  0.00    +0.004 C 
ATOM     18  C   UNL     1       4.835   7.241  -3.620  0.00  0.00    +0.033 C 
ATOM     19  C   UNL     1       4.372   5.156  -2.924  0.00  0.00    +0.003 C 
ATOM     20  C   UNL     1       2.127   5.247  -3.208  0.00  0.00    +0.036 C 
ATOM     21  C   UNL     1       4.863   7.608  -2.014  0.00  0.00    +0.149 C 
ATOM     22  O   UNL     1       4.184   8.948  -2.268  0.00  0.00    -0.330 OA
ATOM     23  C   UNL     1       3.856   8.861  -0.772  0.00  0.00    +0.235 C 
ATOM     24  O   UNL     1       2.697   7.933  -1.165  0.00  0.00    -0.326 OA
ENDROOT
BRANCH  23  25
ATOM     25  C   UNL     1       2.913  10.235  -0.745  0.00  0.00    +0.057 C 
ATOM     26  C   UNL     1       2.073   9.822   0.465  0.00  0.00    +0.005 C 
ATOM     27  C   UNL     1       2.162  10.717   1.632  0.00  0.00    +0.000 C 
ATOM     28  C   UNL     1       3.515  11.038   2.153  0.00  0.00    +0.000 C 
ATOM     29  C   UNL     1       4.492  11.055   1.019  0.00  0.00    +0.000 C 
ATOM     30  C   UNL     1       3.753  11.356  -0.253  0.00  0.00    +0.005 C 
ENDBRANCH  23  25
BRANCH   1  31
ATOM     31  C   UNL     1       3.829   6.121  -0.380  0.00  0.00    +0.221 C 
ATOM     32  O   UNL     1       3.929   4.894  -0.415  0.00  0.00    -0.290 OA
BRANCH  31  33
ATOM     33  C   UNL     1       3.761   6.650   0.987  0.00  0.00    +0.275 C 
BRANCH  33  34
ATOM     34  O   UNL     1       4.995   6.860   1.608  0.00  0.00    -0.440 OA
BRANCH  34  35
ATOM     35  C   UNL     1       5.018   7.423   2.862  0.00  0.00    +0.317 C 
ATOM     36  O   UNL     1       4.046   7.205   3.625  0.00  0.00    -0.250 OA
BRANCH  35  38
ATOM     37  C   UNL     1       6.944   8.908   2.675  0.00  0.00    +0.012 C 
ATOM     38  C   UNL     1       6.260   7.904   3.543  0.00  0.00    +0.099 C 
ATOM     39  C   UNL     1       7.112   6.658   3.747  0.00  0.00    +0.012 C 
ENDBRANCH  35  38
ENDBRANCH  34  35
ENDBRANCH  33  34
ENDBRANCH  31  33
ENDBRANCH   1  31
TORSDOF 6
ENDMDL
