MODEL 1
REMARK VINA RESULT:      -7.6      0.000      0.000
REMARK  Name = 
REMARK  5 active torsions:
REMARK  status: ('A' for Active; 'I' for Inactive)
REMARK    1  A    between atoms: CA_6  and  N_7
REMARK    2  A    between atoms: C_8  and  C_10
REMARK    3  A    between atoms: C_10  and  O_11
REMARK    4  A    between atoms: O_11  and  C_12
REMARK    5  A    between atoms: CA_21  and  C_22
REMARK                            x       y       z     vdW  Elec       q    Type
REMARK                         _______ _______ _______ _____ _____    ______ ____
ROOT
ATOM      1  C   UNL     1       4.933   6.109  -4.129  0.00  0.00    +0.013 C 
ATOM      2  C   UNL     1       4.725   6.029  -4.254  0.00  0.00    +0.068 C 
ATOM      3  CA  UNL     1       3.337   6.887  -4.417  0.00  0.00    +0.189 C 
ATOM      4  N   UNL     1       2.381   5.650  -4.385  0.00  0.00    -0.259 N 
ATOM      5  C   UNL     1       2.899   4.588  -5.329  0.00  0.00    +0.153 C 
ATOM      6  CA  UNL     1       1.669   5.135  -6.342  0.00  0.00    +0.200 C 
ATOM      7  C   UNL     1       1.050   5.666  -4.953  0.00  0.00    +0.249 C 
ATOM      8  O   UNL     1       0.018   5.100  -4.479  0.00  0.00    -0.273 OA
ATOM      9  S   UNL     1       4.464   5.447  -5.972  0.00  0.00    -0.118 S 
ATOM     10  C   UNL     1       4.493   4.975  -3.209  0.00  0.00    +0.013 C 
ENDROOT
BRANCH   3  11
ATOM     11  C   UNL     1       3.236   7.122  -2.820  0.00  0.00    +0.383 C 
ATOM     12  OXT UNL     1       1.999   6.747  -2.299  0.00  0.00    -0.244 OA
ATOM     13  O   UNL     1       3.565   8.323  -2.572  0.00  0.00    -0.244 OA
ENDBRANCH   3  11
BRANCH   6  14
ATOM     14  N   UNL     1       2.271   6.538  -6.731  0.00  0.00    -0.192 NA
ATOM     15  C   UNL     1       2.067   6.950  -8.065  0.00  0.00    +0.286 C 
ATOM     16  O   UNL     1       0.878   6.816  -8.485  0.00  0.00    -0.269 OA
BRANCH  15  17
ATOM     17  C   UNL     1       3.175   7.199  -9.040  0.00  0.00    +0.291 C 
BRANCH  17  18
ATOM     18  O   UNL     1       3.795   6.018  -9.464  0.00  0.00    -0.466 OA
BRANCH  18  19
ATOM     19  C   UNL     1       5.061   6.088 -10.052  0.00  0.00    +0.139 A 
ATOM     20  C   UNL     1       6.183   5.538  -9.462  0.00  0.00    +0.037 A 
ATOM     21  C   UNL     1       7.424   6.105  -9.699  0.00  0.00    +0.003 A 
ATOM     22  C   UNL     1       7.580   7.253 -10.448  0.00  0.00    +0.000 A 
ATOM     23  C   UNL     1       6.495   7.691 -11.161  0.00  0.00    +0.003 A 
ATOM     24  C   UNL     1       5.255   7.171 -10.899  0.00  0.00    +0.037 A 
ENDBRANCH  18  19
ENDBRANCH  17  18
ENDBRANCH  15  17
ENDBRANCH   6  14
TORSDOF 5
ENDMDL
MODEL 2
REMARK VINA RESULT:      -7.5      1.232      1.629
REMARK  Name = 
REMARK  5 active torsions:
REMARK  status: ('A' for Active; 'I' for Inactive)
REMARK    1  A    between atoms: CA_6  and  N_7
REMARK    2  A    between atoms: C_8  and  C_10
REMARK    3  A    between atoms: C_10  and  O_11
REMARK    4  A    between atoms: O_11  and  C_12
REMARK    5  A    between atoms: CA_21  and  C_22
REMARK                            x       y       z     vdW  Elec       q    Type
REMARK                         _______ _______ _______ _____ _____    ______ ____
ROOT
ATOM      1  C   UNL     1       4.491   5.105  -5.178  0.00  0.00    +0.013 C 
ATOM      2  C   UNL     1       4.256   5.139  -5.275  0.00  0.00    +0.068 C 
ATOM      3  CA  UNL     1       3.628   6.585  -5.726  0.00  0.00    +0.189 C 
ATOM      4  N   UNL     1       2.156   6.254  -5.316  0.00  0.00    -0.259 N 
ATOM      5  C   UNL     1       1.773   4.896  -5.861  0.00  0.00    +0.153 C 
ATOM      6  CA  UNL     1       0.934   5.790  -7.016  0.00  0.00    +0.200 C 
ATOM      7  C   UNL     1       1.008   6.930  -5.881  0.00  0.00    +0.249 C 
ATOM      8  O   UNL     1      -0.052   7.263  -5.268  0.00  0.00    -0.273 OA
ATOM      9  S   UNL     1       3.396   4.412  -6.719  0.00  0.00    -0.118 S 
ATOM     10  C   UNL     1       3.650   4.770  -3.951  0.00  0.00    +0.013 C 
ENDROOT
BRANCH   3  11
ATOM     11  C   UNL     1       3.978   7.243  -4.291  0.00  0.00    +0.383 C 
ATOM     12  OXT UNL     1       2.839   7.609  -3.576  0.00  0.00    -0.244 OA
ATOM     13  O   UNL     1       4.805   8.188  -4.476  0.00  0.00    -0.244 OA
ENDBRANCH   3  11
BRANCH   6  14
ATOM     14  N   UNL     1       2.157   6.367  -7.824  0.00  0.00    -0.192 NA
ATOM     15  C   UNL     1       1.923   6.641  -9.189  0.00  0.00    +0.286 C 
ATOM     16  O   UNL     1       0.858   7.287  -9.424  0.00  0.00    -0.269 OA
BRANCH  15  17
ATOM     17  C   UNL     1       2.642   5.963 -10.311  0.00  0.00    +0.291 C 
BRANCH  17  18
ATOM     18  O   UNL     1       3.858   5.397  -9.908  0.00  0.00    -0.466 OA
BRANCH  18  19
ATOM     19  C   UNL     1       5.000   6.202  -9.860  0.00  0.00    +0.139 A 
ATOM     20  C   UNL     1       5.238   7.204 -10.782  0.00  0.00    +0.037 A 
ATOM     21  C   UNL     1       6.543   7.546 -11.095  0.00  0.00    +0.003 A 
ATOM     22  C   UNL     1       7.628   6.871 -10.573  0.00  0.00    +0.000 A 
ATOM     23  C   UNL     1       7.390   6.001  -9.542  0.00  0.00    +0.003 A 
ATOM     24  C   UNL     1       6.106   5.618  -9.258  0.00  0.00    +0.037 A 
ENDBRANCH  18  19
ENDBRANCH  17  18
ENDBRANCH  15  17
ENDBRANCH   6  14
TORSDOF 5
ENDMDL
MODEL 3
REMARK VINA RESULT:      -7.4      2.598      4.375
REMARK  Name = 
REMARK  5 active torsions:
REMARK  status: ('A' for Active; 'I' for Inactive)
REMARK    1  A    between atoms: CA_6  and  N_7
REMARK    2  A    between atoms: C_8  and  C_10
REMARK    3  A    between atoms: C_10  and  O_11
REMARK    4  A    between atoms: O_11  and  C_12
REMARK    5  A    between atoms: CA_21  and  C_22
REMARK                            x       y       z     vdW  Elec       q    Type
REMARK                         _______ _______ _______ _____ _____    ______ ____
ROOT
ATOM      1  C   UNL     1      -2.079   6.890  -5.028  0.00  0.00    +0.013 C 
ATOM      2  C   UNL     1      -1.842   6.835  -4.951  0.00  0.00    +0.068 C 
ATOM      3  CA  UNL     1      -1.355   5.383  -4.364  0.00  0.00    +0.189 C 
ATOM      4  N   UNL     1      -0.315   5.962  -3.350  0.00  0.00    -0.259 N 
ATOM      5  C   UNL     1       0.552   6.988  -4.047  0.00  0.00    +0.153 C 
ATOM      6  CA  UNL     1       1.699   5.754  -4.060  0.00  0.00    +0.200 C 
ATOM      7  C   UNL     1       0.803   5.196  -2.843  0.00  0.00    +0.249 C 
ATOM      8  O   UNL     1       1.272   5.231  -1.664  0.00  0.00    -0.273 OA
ATOM      9  S   UNL     1      -0.213   6.946  -5.784  0.00  0.00    -0.118 S 
ATOM     10  C   UNL     1      -1.999   7.771  -3.787  0.00  0.00    +0.013 C 
ENDROOT
BRANCH   3  11
ATOM     11  C   UNL     1      -2.549   5.368  -3.272  0.00  0.00    +0.383 C 
ATOM     12  OXT UNL     1      -2.109   5.001  -2.001  0.00  0.00    -0.244 OA
ATOM     13  O   UNL     1      -3.494   4.653  -3.724  0.00  0.00    -0.244 OA
ENDBRANCH   3  11
BRANCH   6  14
ATOM     14  N   UNL     1       1.031   4.803  -5.125  0.00  0.00    -0.192 NA
ATOM     15  C   UNL     1       1.899   4.254  -6.093  0.00  0.00    +0.286 C 
ATOM     16  O   UNL     1       2.969   3.759  -5.626  0.00  0.00    -0.269 OA
BRANCH  15  17
ATOM     17  C   UNL     1       1.781   4.513  -7.562  0.00  0.00    +0.291 C 
BRANCH  17  18
ATOM     18  O   UNL     1       2.895   4.062  -8.279  0.00  0.00    -0.466 OA
BRANCH  18  19
ATOM     19  C   UNL     1       3.751   4.999  -8.865  0.00  0.00    +0.139 A 
ATOM     20  C   UNL     1       3.619   5.402 -10.180  0.00  0.00    +0.037 A 
ATOM     21  C   UNL     1       4.741   5.804 -10.885  0.00  0.00    +0.003 A 
ATOM     22  C   UNL     1       6.011   5.749 -10.346  0.00  0.00    +0.000 A 
ATOM     23  C   UNL     1       6.112   5.511  -9.001  0.00  0.00    +0.003 A 
ATOM     24  C   UNL     1       5.020   5.065  -8.305  0.00  0.00    +0.037 A 
ENDBRANCH  18  19
ENDBRANCH  17  18
ENDBRANCH  15  17
ENDBRANCH   6  14
TORSDOF 5
ENDMDL
MODEL 4
REMARK VINA RESULT:      -7.4      2.977      6.909
REMARK  Name = 
REMARK  5 active torsions:
REMARK  status: ('A' for Active; 'I' for Inactive)
REMARK    1  A    between atoms: CA_6  and  N_7
REMARK    2  A    between atoms: C_8  and  C_10
REMARK    3  A    between atoms: C_10  and  O_11
REMARK    4  A    between atoms: O_11  and  C_12
REMARK    5  A    between atoms: CA_21  and  C_22
REMARK                            x       y       z     vdW  Elec       q    Type
REMARK                         _______ _______ _______ _____ _____    ______ ____
ROOT
ATOM      1  C   UNL     1       0.424   5.735  -7.757  0.00  0.00    +0.013 C 
ATOM      2  C   UNL     1       0.603   5.643  -7.599  0.00  0.00    +0.068 C 
ATOM      3  CA  UNL     1       1.662   6.556  -6.742  0.00  0.00    +0.189 C 
ATOM      4  N   UNL     1       2.848   5.541  -6.821  0.00  0.00    -0.259 N 
ATOM      5  C   UNL     1       2.354   4.158  -6.458  0.00  0.00    +0.153 C 
ATOM      6  CA  UNL     1       3.106   4.465  -4.983  0.00  0.00    +0.200 C 
ATOM      7  C   UNL     1       3.937   5.524  -5.867  0.00  0.00    +0.249 C 
ATOM      8  O   UNL     1       5.159   5.296  -6.119  0.00  0.00    -0.273 OA
ATOM      9  S   UNL     1       0.519   4.532  -6.145  0.00  0.00    -0.118 S 
ATOM     10  C   UNL     1       1.343   5.062  -8.771  0.00  0.00    +0.013 C 
ENDROOT
BRANCH   3  11
ATOM     11  C   UNL     1       2.131   7.349  -8.072  0.00  0.00    +0.383 C 
ATOM     12  OXT UNL     1       3.387   6.945  -8.522  0.00  0.00    -0.244 OA
ATOM     13  O   UNL     1       2.032   8.595  -7.849  0.00  0.00    -0.244 OA
ENDBRANCH   3  11
BRANCH   6  14
ATOM     14  N   UNL     1       2.117   5.554  -4.419  0.00  0.00    -0.192 NA
ATOM     15  C   UNL     1       1.975   5.592  -3.015  0.00  0.00    +0.286 C 
ATOM     16  O   UNL     1       3.068   5.572  -2.372  0.00  0.00    -0.269 OA
BRANCH  15  17
ATOM     17  C   UNL     1       0.687   5.333  -2.299  0.00  0.00    +0.291 C 
BRANCH  17  18
ATOM     18  O   UNL     1      -0.134   6.465  -2.242  0.00  0.00    -0.466 OA
BRANCH  18  19
ATOM     19  C   UNL     1      -1.295   6.503  -3.019  0.00  0.00    +0.139 A 
ATOM     20  C   UNL     1      -2.153   5.423  -3.121  0.00  0.00    +0.037 A 
ATOM     21  C   UNL     1      -2.890   5.246  -4.280  0.00  0.00    +0.003 A 
ATOM     22  C   UNL     1      -2.748   6.069  -5.378  0.00  0.00    +0.000 A 
ATOM     23  C   UNL     1      -2.029   7.223  -5.209  0.00  0.00    +0.003 A 
ATOM     24  C   UNL     1      -1.257   7.386  -4.090  0.00  0.00    +0.037 A 
ENDBRANCH  18  19
ENDBRANCH  17  18
ENDBRANCH  15  17
ENDBRANCH   6  14
TORSDOF 5
ENDMDL
MODEL 5
REMARK VINA RESULT:      -7.2      3.688      5.234
REMARK  Name = 
REMARK  5 active torsions:
REMARK  status: ('A' for Active; 'I' for Inactive)
REMARK    1  A    between atoms: CA_6  and  N_7
REMARK    2  A    between atoms: C_8  and  C_10
REMARK    3  A    between atoms: C_10  and  O_11
REMARK    4  A    between atoms: O_11  and  C_12
REMARK    5  A    between atoms: CA_21  and  C_22
REMARK                            x       y       z     vdW  Elec       q    Type
REMARK                         _______ _______ _______ _____ _____    ______ ____
ROOT
ATOM      1  C   UNL     1      -2.223   7.192  -4.648  0.00  0.00    +0.013 C 
ATOM      2  C   UNL     1      -1.985   7.116  -4.594  0.00  0.00    +0.068 C 
ATOM      3  CA  UNL     1      -1.536   5.569  -4.291  0.00  0.00    +0.189 C 
ATOM      4  N   UNL     1      -0.426   5.926  -3.249  0.00  0.00    -0.259 N 
ATOM      5  C   UNL     1       0.452   7.025  -3.805  0.00  0.00    +0.153 C 
ATOM      6  CA  UNL     1       1.542   5.773  -4.090  0.00  0.00    +0.200 C 
ATOM      7  C   UNL     1       0.679   5.044  -2.940  0.00  0.00    +0.249 C 
ATOM      8  O   UNL     1       1.203   4.858  -1.800  0.00  0.00    -0.273 OA
ATOM      9  S   UNL     1      -0.393   7.312  -5.480  0.00  0.00    -0.118 S 
ATOM     10  C   UNL     1      -2.047   7.841  -3.280  0.00  0.00    +0.013 C 
ENDROOT
BRANCH   3  11
ATOM     11  C   UNL     1      -2.678   5.407  -3.156  0.00  0.00    +0.383 C 
ATOM     12  OXT UNL     1      -2.191   4.834  -1.983  0.00  0.00    -0.244 OA
ATOM     13  O   UNL     1      -3.664   4.792  -3.667  0.00  0.00    -0.244 OA
ENDBRANCH   3  11
BRANCH   6  14
ATOM     14  N   UNL     1       0.785   5.045  -5.264  0.00  0.00    -0.192 NA
ATOM     15  C   UNL     1       1.600   4.491  -6.275  0.00  0.00    +0.286 C 
ATOM     16  O   UNL     1       2.579   3.806  -5.850  0.00  0.00    -0.269 OA
BRANCH  15  17
ATOM     17  C   UNL     1       1.563   4.924  -7.707  0.00  0.00    +0.291 C 
BRANCH  17  18
ATOM     18  O   UNL     1       0.257   5.083  -8.187  0.00  0.00    -0.466 OA
BRANCH  18  19
ATOM     19  C   UNL     1       0.062   5.378  -9.540  0.00  0.00    +0.139 A 
ATOM     20  C   UNL     1      -0.061   4.393 -10.502  0.00  0.00    +0.037 A 
ATOM     21  C   UNL     1       0.350   4.653 -11.799  0.00  0.00    +0.003 A 
ATOM     22  C   UNL     1       0.951   5.842 -12.158  0.00  0.00    +0.000 A 
ATOM     23  C   UNL     1       0.915   6.865 -11.247  0.00  0.00    +0.003 A 
ATOM     24  C   UNL     1       0.559   6.608  -9.950  0.00  0.00    +0.037 A 
ENDBRANCH  18  19
ENDBRANCH  17  18
ENDBRANCH  15  17
ENDBRANCH   6  14
TORSDOF 5
ENDMDL
MODEL 6
REMARK VINA RESULT:      -7.2      2.996      7.654
REMARK  Name = 
REMARK  5 active torsions:
REMARK  status: ('A' for Active; 'I' for Inactive)
REMARK    1  A    between atoms: CA_6  and  N_7
REMARK    2  A    between atoms: C_8  and  C_10
REMARK    3  A    between atoms: C_10  and  O_11
REMARK    4  A    between atoms: O_11  and  C_12
REMARK    5  A    between atoms: CA_21  and  C_22
REMARK                            x       y       z     vdW  Elec       q    Type
REMARK                         _______ _______ _______ _____ _____    ______ ____
ROOT
ATOM      1  C   UNL     1       2.504   3.641  -8.422  0.00  0.00    +0.013 C 
ATOM      2  C   UNL     1       2.494   3.857  -8.285  0.00  0.00    +0.068 C 
ATOM      3  CA  UNL     1       1.366   5.033  -8.464  0.00  0.00    +0.189 C 
ATOM      4  N   UNL     1       2.321   6.223  -8.121  0.00  0.00    -0.259 N 
ATOM      5  C   UNL     1       3.095   5.903  -6.863  0.00  0.00    +0.153 C 
ATOM      6  CA  UNL     1       2.006   6.958  -6.131  0.00  0.00    +0.200 C 
ATOM      7  C   UNL     1       1.846   7.502  -7.639  0.00  0.00    +0.249 C 
ATOM      8  O   UNL     1       2.313   8.644  -7.937  0.00  0.00    -0.273 OA
ATOM      9  S   UNL     1       2.412   4.173  -6.482  0.00  0.00    -0.118 S 
ATOM     10  C   UNL     1       3.762   4.336  -8.933  0.00  0.00    +0.013 C 
ENDROOT
BRANCH   3  11
ATOM     11  C   UNL     1       1.653   5.138 -10.052  0.00  0.00    +0.383 C 
ATOM     12  OXT UNL     1       1.867   6.450 -10.473  0.00  0.00    -0.244 OA
ATOM     13  O   UNL     1       0.720   4.537 -10.667  0.00  0.00    -0.244 OA
ENDBRANCH   3  11
BRANCH   6  14
ATOM     14  N   UNL     1       0.708   6.068  -6.204  0.00  0.00    -0.192 NA
ATOM     15  C   UNL     1      -0.293   6.356  -5.251  0.00  0.00    +0.286 C 
ATOM     16  O   UNL     1      -0.573   7.587  -5.132  0.00  0.00    -0.269 OA
BRANCH  15  17
ATOM     17  C   UNL     1      -0.761   5.385  -4.213  0.00  0.00    +0.291 C 
BRANCH  17  18
ATOM     18  O   UNL     1       0.015   5.427  -3.048  0.00  0.00    -0.466 OA
BRANCH  18  19
ATOM     19  C   UNL     1      -0.579   5.839  -1.852  0.00  0.00    +0.139 A 
ATOM     20  C   UNL     1      -1.773   6.534  -1.819  0.00  0.00    +0.037 A 
ATOM     21  C   UNL     1      -2.018   7.419  -0.781  0.00  0.00    +0.003 A 
ATOM     22  C   UNL     1      -1.078   7.693   0.192  0.00  0.00    +0.000 A 
ATOM     23  C   UNL     1       0.025   6.882   0.246  0.00  0.00    +0.003 A 
ATOM     24  C   UNL     1       0.302   6.040  -0.798  0.00  0.00    +0.037 A 
ENDBRANCH  18  19
ENDBRANCH  17  18
ENDBRANCH  15  17
ENDBRANCH   6  14
TORSDOF 5
ENDMDL
MODEL 7
REMARK VINA RESULT:      -7.2      2.889      7.317
REMARK  Name = 
REMARK  5 active torsions:
REMARK  status: ('A' for Active; 'I' for Inactive)
REMARK    1  A    between atoms: CA_6  and  N_7
REMARK    2  A    between atoms: C_8  and  C_10
REMARK    3  A    between atoms: C_10  and  O_11
REMARK    4  A    between atoms: O_11  and  C_12
REMARK    5  A    between atoms: CA_21  and  C_22
REMARK                            x       y       z     vdW  Elec       q    Type
REMARK                         _______ _______ _______ _____ _____    ______ ____
ROOT
ATOM      1  C   UNL     1       3.763   6.471 -11.948  0.00  0.00    +0.013 C 
ATOM      2  C   UNL     1       3.802   6.360 -11.722  0.00  0.00    +0.068 C 
ATOM      3  CA  UNL     1       4.731   6.975 -10.518  0.00  0.00    +0.189 C 
ATOM      4  N   UNL     1       5.242   5.596  -9.990  0.00  0.00    -0.259 N 
ATOM      5  C   UNL     1       4.072   4.651  -9.830  0.00  0.00    +0.153 C 
ATOM      6  CA  UNL     1       4.236   5.003  -8.191  0.00  0.00    +0.200 C 
ATOM      7  C   UNL     1       5.731   5.399  -8.642  0.00  0.00    +0.249 C 
ATOM      8  O   UNL     1       6.700   4.660  -8.288  0.00  0.00    -0.273 OA
ATOM      9  S   UNL     1       2.657   5.771 -10.418  0.00  0.00    -0.118 S 
ATOM     10  C   UNL     1       4.585   5.264 -12.389  0.00  0.00    +0.013 C 
ENDROOT
BRANCH   3  11
ATOM     11  C   UNL     1       5.989   7.164 -11.517  0.00  0.00    +0.383 C 
ATOM     12  OXT UNL     1       7.081   6.375 -11.159  0.00  0.00    -0.244 OA
ATOM     13  O   UNL     1       6.247   8.404 -11.605  0.00  0.00    -0.244 OA
ENDBRANCH   3  11
BRANCH   6  14
ATOM     14  N   UNL     1       3.725   6.493  -8.202  0.00  0.00    -0.192 NA
ATOM     15  C   UNL     1       3.089   6.937  -7.023  0.00  0.00    +0.286 C 
ATOM     16  O   UNL     1       3.708   6.660  -5.951  0.00  0.00    -0.269 OA
BRANCH  15  17
ATOM     17  C   UNL     1       1.663   7.385  -6.962  0.00  0.00    +0.291 C 
BRANCH  17  18
ATOM     18  O   UNL     1       0.760   6.323  -7.091  0.00  0.00    -0.466 OA
BRANCH  18  19
ATOM     19  C   UNL     1      -0.291   6.210  -6.176  0.00  0.00    +0.139 A 
ATOM     20  C   UNL     1      -1.489   5.598  -6.496  0.00  0.00    +0.037 A 
ATOM     21  C   UNL     1      -2.653   6.010  -5.869  0.00  0.00    +0.003 A 
ATOM     22  C   UNL     1      -2.679   7.067  -4.982  0.00  0.00    +0.000 A 
ATOM     23  C   UNL     1      -1.473   7.552  -4.547  0.00  0.00    +0.003 A 
ATOM     24  C   UNL     1      -0.322   7.189  -5.192  0.00  0.00    +0.037 A 
ENDBRANCH  18  19
ENDBRANCH  17  18
ENDBRANCH  15  17
ENDBRANCH   6  14
TORSDOF 5
ENDMDL
MODEL 8
REMARK VINA RESULT:      -7.1      2.797      7.009
REMARK  Name = 
REMARK  5 active torsions:
REMARK  status: ('A' for Active; 'I' for Inactive)
REMARK    1  A    between atoms: CA_6  and  N_7
REMARK    2  A    between atoms: C_8  and  C_10
REMARK    3  A    between atoms: C_10  and  O_11
REMARK    4  A    between atoms: O_11  and  C_12
REMARK    5  A    between atoms: CA_21  and  C_22
REMARK                            x       y       z     vdW  Elec       q    Type
REMARK                         _______ _______ _______ _____ _____    ______ ____
ROOT
ATOM      1  C   UNL     1       6.888   6.478 -10.493  0.00  0.00    +0.013 C 
ATOM      2  C   UNL     1       6.634   6.483 -10.527  0.00  0.00    +0.068 C 
ATOM      3  CA  UNL     1       5.759   5.294 -11.240  0.00  0.00    +0.189 C 
ATOM      4  N   UNL     1       4.707   6.245 -11.900  0.00  0.00    -0.259 N 
ATOM      5  C   UNL     1       4.209   7.237 -10.873  0.00  0.00    +0.153 C 
ATOM      6  CA  UNL     1       2.847   6.247 -10.832  0.00  0.00    +0.200 C 
ATOM      7  C   UNL     1       3.382   5.809 -12.287  0.00  0.00    +0.249 C 
ATOM      8  O   UNL     1       2.738   6.170 -13.318  0.00  0.00    -0.273 OA
ATOM      9  S   UNL     1       5.233   6.700  -9.367  0.00  0.00    -0.118 S 
ATOM     10  C   UNL     1       6.785   7.600 -11.521  0.00  0.00    +0.013 C 
ENDROOT
BRANCH   3  11
ATOM     11  C   UNL     1       6.718   5.300 -12.543  0.00  0.00    +0.383 C 
ATOM     12  OXT UNL     1       6.018   5.061 -13.725  0.00  0.00    -0.244 OA
ATOM     13  O   UNL     1       7.679   4.498 -12.334  0.00  0.00    -0.244 OA
ENDBRANCH   3  11
BRANCH   6  14
ATOM     14  N   UNL     1       3.469   4.993 -10.110  0.00  0.00    -0.192 NA
ATOM     15  C   UNL     1       2.623   4.319  -9.203  0.00  0.00    +0.286 C 
ATOM     16  O   UNL     1       1.459   4.077  -9.645  0.00  0.00    -0.269 OA
BRANCH  15  17
ATOM     17  C   UNL     1       2.904   4.188  -7.739  0.00  0.00    +0.291 C 
BRANCH  17  18
ATOM     18  O   UNL     1       2.230   5.149  -6.975  0.00  0.00    -0.466 OA
BRANCH  18  19
ATOM     19  C   UNL     1       2.837   5.643  -5.817  0.00  0.00    +0.139 A 
ATOM     20  C   UNL     1       3.307   6.940  -5.725  0.00  0.00    +0.037 A 
ATOM     21  C   UNL     1       4.381   7.217  -4.894  0.00  0.00    +0.003 A 
ATOM     22  C   UNL     1       5.054   6.230  -4.203  0.00  0.00    +0.000 A 
ATOM     23  C   UNL     1       4.481   4.986  -4.168  0.00  0.00    +0.003 A 
ATOM     24  C   UNL     1       3.452   4.686  -5.021  0.00  0.00    +0.037 A 
ENDBRANCH  18  19
ENDBRANCH  17  18
ENDBRANCH  15  17
ENDBRANCH   6  14
TORSDOF 5
ENDMDL
MODEL 9
REMARK VINA RESULT:      -7.1      3.170      5.842
REMARK  Name = 
REMARK  5 active torsions:
REMARK  status: ('A' for Active; 'I' for Inactive)
REMARK    1  A    between atoms: CA_6  and  N_7
REMARK    2  A    between atoms: C_8  and  C_10
REMARK    3  A    between atoms: C_10  and  O_11
REMARK    4  A    between atoms: O_11  and  C_12
REMARK    5  A    between atoms: CA_21  and  C_22
REMARK                            x       y       z     vdW  Elec       q    Type
REMARK                         _______ _______ _______ _____ _____    ______ ____
ROOT
ATOM      1  C   UNL     1       2.728   6.754  -6.534  0.00  0.00    +0.013 C 
ATOM      2  C   UNL     1       2.496   6.735  -6.427  0.00  0.00    +0.068 C 
ATOM      3  CA  UNL     1       1.686   5.330  -6.187  0.00  0.00    +0.189 C 
ATOM      4  N   UNL     1       0.260   5.927  -6.421  0.00  0.00    -0.259 N 
ATOM      5  C   UNL     1       0.108   7.200  -5.620  0.00  0.00    +0.153 C 
ATOM      6  CA  UNL     1      -0.794   6.233  -4.578  0.00  0.00    +0.200 C 
ATOM      7  C   UNL     1      -0.945   5.320  -5.896  0.00  0.00    +0.249 C 
ATOM      8  O   UNL     1      -2.072   5.252  -6.475  0.00  0.00    -0.273 OA
ATOM      9  S   UNL     1       1.826   7.295  -4.817  0.00  0.00    -0.118 S 
ATOM     10  C   UNL     1       1.885   7.419  -7.616  0.00  0.00    +0.013 C 
ENDROOT
BRANCH   3  11
ATOM     11  C   UNL     1       1.863   4.904  -7.738  0.00  0.00    +0.383 C 
ATOM     12  OXT UNL     1       0.655   4.900  -8.434  0.00  0.00    -0.244 OA
ATOM     13  O   UNL     1       2.494   3.804  -7.780  0.00  0.00    -0.244 OA
ENDBRANCH   3  11
BRANCH   6  14
ATOM     14  N   UNL     1       0.371   5.357  -3.978  0.00  0.00    -0.192 NA
ATOM     15  C   UNL     1       0.343   5.166  -2.580  0.00  0.00    +0.286 C 
ATOM     16  O   UNL     1      -0.787   4.829  -2.113  0.00  0.00    -0.269 OA
BRANCH  15  17
ATOM     17  C   UNL     1       1.419   5.637  -1.653  0.00  0.00    +0.291 C 
BRANCH  17  18
ATOM     18  O   UNL     1       2.566   4.837  -1.708  0.00  0.00    -0.466 OA
BRANCH  18  19
ATOM     19  C   UNL     1       3.775   5.410  -2.113  0.00  0.00    +0.139 A 
ATOM     20  C   UNL     1       4.134   6.700  -1.770  0.00  0.00    +0.037 A 
ATOM     21  C   UNL     1       4.954   7.427  -2.618  0.00  0.00    +0.003 A 
ATOM     22  C   UNL     1       5.372   6.938  -3.838  0.00  0.00    +0.000 A 
ATOM     23  C   UNL     1       5.154   5.609  -4.091  0.00  0.00    +0.003 A 
ATOM     24  C   UNL     1       4.306   4.895  -3.288  0.00  0.00    +0.037 A 
ENDBRANCH  18  19
ENDBRANCH  17  18
ENDBRANCH  15  17
ENDBRANCH   6  14
TORSDOF 5
ENDMDL
