MODEL 1
REMARK VINA RESULT:      -2.7      0.000      0.000
REMARK  Name = 
REMARK  0 active torsions:
REMARK  status: ('A' for Active; 'I' for Inactive)
REMARK                            x       y       z     vdW  Elec       q    Type
REMARK                         _______ _______ _______ _____ _____    ______ ____
ROOT
ATOM      1  O   UNL     1       9.443   5.973 -12.357  0.00  0.00    -0.197 OA
ATOM      2  C   UNL     1       8.338   5.466 -12.017  0.00  0.00    +0.592 C 
ATOM      3  O   UNL     1       7.953   5.367 -10.686  0.00  0.00    -0.197 OA
ATOM      4  O   UNL     1       7.710   4.624 -12.926  0.00  0.00    -0.197 OA
ENDROOT
TORSDOF 0
ENDMDL
MODEL 2
REMARK VINA RESULT:      -2.7      0.104      2.030
REMARK  Name = 
REMARK  0 active torsions:
REMARK  status: ('A' for Active; 'I' for Inactive)
REMARK                            x       y       z     vdW  Elec       q    Type
REMARK                         _______ _______ _______ _____ _____    ______ ____
ROOT
ATOM      1  O   UNL     1       7.645   4.600 -12.778  0.00  0.00    -0.197 OA
ATOM      2  C   UNL     1       8.243   5.410 -12.016  0.00  0.00    +0.592 C 
ATOM      3  O   UNL     1       9.464   5.977 -12.359  0.00  0.00    -0.197 OA
ATOM      4  O   UNL     1       7.900   5.398 -10.670  0.00  0.00    -0.197 OA
ENDROOT
TORSDOF 0
ENDMDL
MODEL 3
REMARK VINA RESULT:      -2.7      0.075      2.006
REMARK  Name = 
REMARK  0 active torsions:
REMARK  status: ('A' for Active; 'I' for Inactive)
REMARK                            x       y       z     vdW  Elec       q    Type
REMARK                         _______ _______ _______ _____ _____    ______ ____
ROOT
ATOM      1  O   UNL     1       7.973   5.396 -10.749  0.00  0.00    -0.197 OA
ATOM      2  C   UNL     1       8.275   5.427 -11.975  0.00  0.00    +0.592 C 
ATOM      3  O   UNL     1       7.655   4.605 -12.907  0.00  0.00    -0.197 OA
ATOM      4  O   UNL     1       9.511   5.962 -12.318  0.00  0.00    -0.197 OA
ENDROOT
TORSDOF 0
ENDMDL
MODEL 4
REMARK VINA RESULT:      -2.6      0.337      1.690
REMARK  Name = 
REMARK  0 active torsions:
REMARK  status: ('A' for Active; 'I' for Inactive)
REMARK                            x       y       z     vdW  Elec       q    Type
REMARK                         _______ _______ _______ _____ _____    ______ ____
ROOT
ATOM      1  O   UNL     1       9.382   5.949 -12.234  0.00  0.00    -0.197 OA
ATOM      2  C   UNL     1       8.284   5.371 -11.999  0.00  0.00    +0.592 C 
ATOM      3  O   UNL     1       7.606   4.654 -12.976  0.00  0.00    -0.197 OA
ATOM      4  O   UNL     1       7.549   5.810 -10.905  0.00  0.00    -0.197 OA
ENDROOT
TORSDOF 0
ENDMDL
MODEL 5
REMARK VINA RESULT:      -2.5      1.848      2.907
REMARK  Name = 
REMARK  0 active torsions:
REMARK  status: ('A' for Active; 'I' for Inactive)
REMARK                            x       y       z     vdW  Elec       q    Type
REMARK                         _______ _______ _______ _____ _____    ______ ____
ROOT
ATOM      1  O   UNL     1       5.692   4.952 -13.487  0.00  0.00    -0.197 OA
ATOM      2  C   UNL     1       6.873   5.381 -13.353  0.00  0.00    +0.592 C 
ATOM      3  O   UNL     1       7.383   6.394 -14.155  0.00  0.00    -0.197 OA
ATOM      4  O   UNL     1       7.787   4.555 -12.710  0.00  0.00    -0.197 OA
ENDROOT
TORSDOF 0
ENDMDL
MODEL 6
REMARK VINA RESULT:      -2.4     14.186     14.510
REMARK  Name = 
REMARK  0 active torsions:
REMARK  status: ('A' for Active; 'I' for Inactive)
REMARK                            x       y       z     vdW  Elec       q    Type
REMARK                         _______ _______ _______ _____ _____    ______ ____
ROOT
ATOM      1  O   UNL     1      -2.484   6.785  -2.050  0.00  0.00    -0.197 OA
ATOM      2  C   UNL     1      -2.100   5.596  -2.236  0.00  0.00    +0.592 C 
ATOM      3  O   UNL     1      -2.929   4.634  -2.797  0.00  0.00    -0.197 OA
ATOM      4  O   UNL     1      -1.015   5.148  -1.491  0.00  0.00    -0.197 OA
ENDROOT
TORSDOF 0
ENDMDL
MODEL 7
REMARK VINA RESULT:      -2.3      9.623     10.403
REMARK  Name = 
REMARK  0 active torsions:
REMARK  status: ('A' for Active; 'I' for Inactive)
REMARK                            x       y       z     vdW  Elec       q    Type
REMARK                         _______ _______ _______ _____ _____    ______ ____
ROOT
ATOM      1  O   UNL     1       9.210  -1.939 -17.220  0.00  0.00    -0.197 OA
ATOM      2  C   UNL     1       9.567  -2.925 -17.925  0.00  0.00    +0.592 C 
ATOM      3  O   UNL     1       8.963  -4.170 -17.807  0.00  0.00    -0.197 OA
ATOM      4  O   UNL     1      10.833  -2.881 -18.496  0.00  0.00    -0.197 OA
ENDROOT
TORSDOF 0
ENDMDL
MODEL 8
REMARK VINA RESULT:      -2.2     12.858     13.709
REMARK  Name = 
REMARK  0 active torsions:
REMARK  status: ('A' for Active; 'I' for Inactive)
REMARK                            x       y       z     vdW  Elec       q    Type
REMARK                         _______ _______ _______ _____ _____    ______ ____
ROOT
ATOM      1  O   UNL     1      -1.011   5.375  -3.821  0.00  0.00    -0.197 OA
ATOM      2  C   UNL     1      -2.210   5.573  -3.478  0.00  0.00    +0.592 C 
ATOM      3  O   UNL     1      -2.796   6.831  -3.545  0.00  0.00    -0.197 OA
ATOM      4  O   UNL     1      -2.801   4.638  -2.636  0.00  0.00    -0.197 OA
ENDROOT
TORSDOF 0
ENDMDL
MODEL 9
REMARK VINA RESULT:      -2.2      7.240      7.703
REMARK  Name = 
REMARK  0 active torsions:
REMARK  status: ('A' for Active; 'I' for Inactive)
REMARK                            x       y       z     vdW  Elec       q    Type
REMARK                         _______ _______ _______ _____ _____    ______ ____
ROOT
ATOM      1  O   UNL     1       2.658   6.091  -7.920  0.00  0.00    -0.197 OA
ATOM      2  C   UNL     1       2.817   7.226  -7.391  0.00  0.00    +0.592 C 
ATOM      3  O   UNL     1       3.356   7.377  -6.120  0.00  0.00    -0.197 OA
ATOM      4  O   UNL     1       2.061   8.280  -7.893  0.00  0.00    -0.197 OA
ENDROOT
TORSDOF 0
ENDMDL
