MODEL 1
REMARK VINA RESULT:      -8.6      0.000      0.000
REMARK  Name = 
REMARK  11 active torsions:
REMARK  status: ('A' for Active; 'I' for Inactive)
REMARK    1  A    between atoms: O_2  and  C_3
REMARK    2  A    between atoms: C_3  and  C_5
REMARK    3  A    between atoms: C_5  and  C_6
REMARK    4  A    between atoms: C_6  and  C_8
REMARK    5  A    between atoms: C_6  and  C_15
REMARK    6  A    between atoms: C_8  and  C_9
REMARK    7  A    between atoms: C_9  and  C_10
REMARK    8  A    between atoms: C_10  and  C_11
REMARK    9  A    between atoms: C_15  and  O_17
REMARK   10  A    between atoms: O_17  and  C_18
REMARK   11  A    between atoms: C_19  and  O_20
REMARK                            x       y       z     vdW  Elec       q    Type
REMARK                         _______ _______ _______ _____ _____    ______ ____
ROOT
ATOM      1  C   UNL     1       0.176   5.028  -5.596  0.00  0.00    +0.230 C 
ATOM      2  C   UNL     1      -0.055   6.530  -4.731  0.00  0.00    +0.087 C 
ATOM      3  C   UNL     1      -1.657   6.224  -4.722  0.00  0.00    +0.074 C 
ATOM      4  N   UNL     1      -2.357   7.326  -4.212  0.00  0.00    -0.271 NA
ATOM      5  C   UNL     1      -1.740   8.054  -3.141  0.00  0.00    +0.077 C 
ATOM      6  C   UNL     1      -1.676   7.082  -1.968  0.00  0.00    +0.043 C 
ATOM      7  C   UNL     1      -0.381   6.346  -2.141  0.00  0.00    -0.021 A 
ATOM      8  C   UNL     1       0.240   6.162  -0.911  0.00  0.00    +0.036 A 
ATOM      9  C   UNL     1       1.615   6.196  -0.860  0.00  0.00    +0.176 A 
ATOM     10  O   UNL     1       2.539   6.478   0.151  0.00  0.00    -0.435 OA
ATOM     11  C   UNL     1       3.799   6.663  -0.481  0.00  0.00    +0.429 C 
ATOM     12  O   UNL     1       3.632   5.863  -1.648  0.00  0.00    -0.435 OA
ATOM     13  C   UNL     1       2.286   5.820  -2.004  0.00  0.00    +0.176 A 
ATOM     14  C   UNL     1       1.600   5.679  -3.202  0.00  0.00    +0.036 A 
ATOM     15  C   UNL     1      -3.562   6.740  -3.667  0.00  0.00    +0.072 C 
ATOM     16  C   UNL     1      -3.285   5.309  -3.329  0.00  0.00    +0.019 C 
ATOM     17  C   UNL     1      -1.929   4.999  -3.949  0.00  0.00    +0.021 C 
ATOM     18  C   UNL     1      -1.893   5.918  -6.140  0.00  0.00    +0.024 C 
ATOM     19  C   UNL     1       0.222   5.848  -3.294  0.00  0.00    -0.018 A 
ATOM     20  C   UNL     1      -0.821   5.559  -6.784  0.00  0.00    +0.153 C 
ENDROOT
BRANCH  20  21
ATOM     21  O   UNL     1      -0.658   5.011  -8.055  0.00  0.00    -0.472 OA
ATOM     22  C   UNL     1      -0.320   5.834  -9.143  0.00  0.00    +0.252 C 
ENDBRANCH  20  21
BRANCH   1  23
ATOM     23  O   UNL     1       1.454   5.532  -6.334  0.00  0.00    -0.442 OA
BRANCH  23  24
ATOM     24  C   UNL     1       2.384   4.615  -6.685  0.00  0.00    +0.346 C 
ATOM     25  O   UNL     1       2.211   3.409  -6.402  0.00  0.00    -0.247 OA
BRANCH  24  26
ATOM     26  C   UNL     1       3.469   5.073  -7.615  0.00  0.00    +0.225 C 
ATOM     27  O   UNL     1       3.717   4.144  -8.616  0.00  0.00    -0.214 OA
BRANCH  26  28
ATOM     28  C   UNL     1       2.973   6.349  -8.285  0.00  0.00    +0.042 C 
BRANCH  28  29
ATOM     29  C   UNL     1       3.263   6.374  -9.759  0.00  0.00    +0.006 C 
BRANCH  29  30
ATOM     30  C   UNL     1       4.473   7.194 -10.116  0.00  0.00    +0.031 C 
BRANCH  30  31
ATOM     31  C   UNL     1       5.540   6.397 -10.825  0.00  0.00    +0.127 C 
ATOM     32  O   UNL     1       4.934   5.348 -11.520  0.00  0.00    -0.226 OA
ATOM     33  C   UNL     1       6.241   7.282 -11.846  0.00  0.00    +0.033 C 
ATOM     34  C   UNL     1       6.597   5.909  -9.875  0.00  0.00    +0.033 C 
ENDBRANCH  30  31
ENDBRANCH  29  30
ENDBRANCH  28  29
ENDBRANCH  26  28
BRANCH  26  35
ATOM     35  C   UNL     1       4.715   5.438  -6.855  0.00  0.00    +0.151 C 
BRANCH  35  36
ATOM     36  C   UNL     1       4.437   5.786  -5.427  0.00  0.00    +0.320 C 
ATOM     37  O   UNL     1       4.898   5.059  -4.495  0.00  0.00    -0.250 OA
BRANCH  36  39
ATOM     38  C   UNL     1       5.107   7.780  -4.208  0.00  0.00    +0.256 C 
ATOM     39  O   UNL     1       4.234   7.127  -5.083  0.00  0.00    -0.444 OA
ENDBRANCH  36  39
ENDBRANCH  35  36
ENDBRANCH  26  35
ENDBRANCH  24  26
ENDBRANCH  23  24
ENDBRANCH   1  23
TORSDOF 11
ENDMDL
MODEL 2
REMARK VINA RESULT:      -8.5      3.116      9.559
REMARK  Name = 
REMARK  11 active torsions:
REMARK  status: ('A' for Active; 'I' for Inactive)
REMARK    1  A    between atoms: O_2  and  C_3
REMARK    2  A    between atoms: C_3  and  C_5
REMARK    3  A    between atoms: C_5  and  C_6
REMARK    4  A    between atoms: C_6  and  C_8
REMARK    5  A    between atoms: C_6  and  C_15
REMARK    6  A    between atoms: C_8  and  C_9
REMARK    7  A    between atoms: C_9  and  C_10
REMARK    8  A    between atoms: C_10  and  C_11
REMARK    9  A    between atoms: C_15  and  O_17
REMARK   10  A    between atoms: O_17  and  C_18
REMARK   11  A    between atoms: C_19  and  O_20
REMARK                            x       y       z     vdW  Elec       q    Type
REMARK                         _______ _______ _______ _____ _____    ______ ____
ROOT
ATOM      1  C   UNL     1       4.376   5.048  -9.580  0.00  0.00    +0.230 C 
ATOM      2  C   UNL     1       4.682   6.548 -10.422  0.00  0.00    +0.087 C 
ATOM      3  C   UNL     1       6.277   6.224 -10.323  0.00  0.00    +0.074 C 
ATOM      4  N   UNL     1       7.024   7.318 -10.781  0.00  0.00    -0.271 NA
ATOM      5  C   UNL     1       6.490   8.055 -11.890  0.00  0.00    +0.077 C 
ATOM      6  C   UNL     1       6.494   7.087 -13.067  0.00  0.00    +0.043 C 
ATOM      7  C   UNL     1       5.182   6.366 -12.984  0.00  0.00    -0.021 A 
ATOM      8  C   UNL     1       4.644   6.192 -14.254  0.00  0.00    +0.036 A 
ATOM      9  C   UNL     1       3.277   6.241 -14.399  0.00  0.00    +0.176 A 
ATOM     10  O   UNL     1       2.426   6.536 -15.469  0.00  0.00    -0.435 OA
ATOM     11  C   UNL     1       1.129   6.735 -14.924  0.00  0.00    +0.429 C 
ATOM     12  O   UNL     1       1.207   5.931 -13.751  0.00  0.00    -0.435 OA
ATOM     13  C   UNL     1       2.524   5.871 -13.304  0.00  0.00    +0.176 A 
ATOM     14  C   UNL     1       3.126   5.720 -12.063  0.00  0.00    +0.036 A 
ATOM     15  C   UNL     1       8.256   6.719 -11.245  0.00  0.00    +0.072 C 
ATOM     16  C   UNL     1       7.986   5.292 -11.604  0.00  0.00    +0.019 C 
ATOM     17  C   UNL     1       6.587   4.997 -11.079  0.00  0.00    +0.021 C 
ATOM     18  C   UNL     1       6.413   5.912  -8.893  0.00  0.00    +0.024 C 
ATOM     19  C   UNL     1       4.496   5.872 -11.877  0.00  0.00    -0.018 A 
ATOM     20  C   UNL     1       5.296   5.564  -8.325  0.00  0.00    +0.153 C 
ENDROOT
BRANCH  20  21
ATOM     21  O   UNL     1       5.040   5.015  -7.070  0.00  0.00    -0.472 OA
ATOM     22  C   UNL     1       4.716   5.848  -5.984  0.00  0.00    +0.252 C 
ENDBRANCH  20  21
BRANCH   1  23
ATOM     23  O   UNL     1       3.056   5.565  -8.929  0.00  0.00    -0.442 OA
BRANCH  23  24
ATOM     24  C   UNL     1       2.146   4.647  -8.529  0.00  0.00    +0.346 C 
ATOM     25  O   UNL     1       2.387   3.427  -8.665  0.00  0.00    -0.247 OA
BRANCH  24  26
ATOM     26  C   UNL     1       0.989   5.151  -7.717  0.00  0.00    +0.225 C 
ATOM     27  O   UNL     1       0.702   4.310  -6.650  0.00  0.00    -0.214 OA
BRANCH  26  28
ATOM     28  C   UNL     1       1.403   6.499  -7.141  0.00  0.00    +0.042 C 
BRANCH  28  29
ATOM     29  C   UNL     1       1.070   6.627  -5.681  0.00  0.00    +0.006 C 
BRANCH  29  30
ATOM     30  C   UNL     1      -0.154   7.461  -5.416  0.00  0.00    +0.031 C 
BRANCH  30  31
ATOM     31  C   UNL     1      -1.262   6.689  -4.745  0.00  0.00    +0.127 C 
ATOM     32  O   UNL     1      -0.700   5.691  -3.946  0.00  0.00    -0.226 OA
ATOM     33  C   UNL     1      -2.049   7.620  -3.832  0.00  0.00    +0.033 C 
ATOM     34  C   UNL     1      -2.239   6.132  -5.741  0.00  0.00    +0.033 C 
ENDBRANCH  30  31
ENDBRANCH  29  30
ENDBRANCH  28  29
ENDBRANCH  26  28
BRANCH  26  35
ATOM     35  C   UNL     1      -0.213   5.400  -8.585  0.00  0.00    +0.151 C 
BRANCH  35  36
ATOM     36  C   UNL     1       0.149   5.640 -10.016  0.00  0.00    +0.320 C 
ATOM     37  O   UNL     1      -0.172   4.791 -10.904  0.00  0.00    -0.250 OA
BRANCH  36  39
ATOM     38  C   UNL     1      -0.628   7.464 -11.422  0.00  0.00    +0.256 C 
ATOM     39  O   UNL     1       0.266   6.956 -10.475  0.00  0.00    -0.444 OA
ENDBRANCH  36  39
ENDBRANCH  35  36
ENDBRANCH  26  35
ENDBRANCH  24  26
ENDBRANCH  23  24
ENDBRANCH   1  23
TORSDOF 11
ENDMDL
MODEL 3
REMARK VINA RESULT:      -7.8      2.964      9.349
REMARK  Name = 
REMARK  11 active torsions:
REMARK  status: ('A' for Active; 'I' for Inactive)
REMARK    1  A    between atoms: O_2  and  C_3
REMARK    2  A    between atoms: C_3  and  C_5
REMARK    3  A    between atoms: C_5  and  C_6
REMARK    4  A    between atoms: C_6  and  C_8
REMARK    5  A    between atoms: C_6  and  C_15
REMARK    6  A    between atoms: C_8  and  C_9
REMARK    7  A    between atoms: C_9  and  C_10
REMARK    8  A    between atoms: C_10  and  C_11
REMARK    9  A    between atoms: C_15  and  O_17
REMARK   10  A    between atoms: O_17  and  C_18
REMARK   11  A    between atoms: C_19  and  O_20
REMARK                            x       y       z     vdW  Elec       q    Type
REMARK                         _______ _______ _______ _____ _____    ______ ____
ROOT
ATOM      1  C   UNL     1       4.333   5.040  -9.580  0.00  0.00    +0.230 C 
ATOM      2  C   UNL     1       4.622   6.526 -10.453  0.00  0.00    +0.087 C 
ATOM      3  C   UNL     1       6.217   6.191 -10.403  0.00  0.00    +0.074 C 
ATOM      4  N   UNL     1       6.956   7.273 -10.901  0.00  0.00    -0.271 NA
ATOM      5  C   UNL     1       6.390   7.999 -12.002  0.00  0.00    +0.077 C 
ATOM      6  C   UNL     1       6.348   7.013 -13.165  0.00  0.00    +0.043 C 
ATOM      7  C   UNL     1       5.034   6.304 -13.028  0.00  0.00    -0.021 A 
ATOM      8  C   UNL     1       4.453   6.115 -14.277  0.00  0.00    +0.036 A 
ATOM      9  C   UNL     1       3.082   6.173 -14.376  0.00  0.00    +0.176 A 
ATOM     10  O   UNL     1       2.198   6.459 -15.422  0.00  0.00    -0.435 OA
ATOM     11  C   UNL     1       0.921   6.676 -14.836  0.00  0.00    +0.429 C 
ATOM     12  O   UNL     1       1.033   5.888 -13.655  0.00  0.00    -0.435 OA
ATOM     13  C   UNL     1       2.364   5.824 -13.252  0.00  0.00    +0.176 A 
ATOM     14  C   UNL     1       3.005   5.686 -12.029  0.00  0.00    +0.036 A 
ATOM     15  C   UNL     1       8.167   6.658 -11.397  0.00  0.00    +0.072 C 
ATOM     16  C   UNL     1       7.875   5.229 -11.727  0.00  0.00    +0.019 C 
ATOM     17  C   UNL     1       6.493   4.951 -11.151  0.00  0.00    +0.021 C 
ATOM     18  C   UNL     1       6.399   5.898  -8.974  0.00  0.00    +0.024 C 
ATOM     19  C   UNL     1       4.382   5.831 -11.891  0.00  0.00    -0.018 A 
ATOM     20  C   UNL     1       5.299   5.567  -8.364  0.00  0.00    +0.153 C 
ENDROOT
BRANCH  20  21
ATOM     21  O   UNL     1       5.081   5.038  -7.093  0.00  0.00    -0.472 OA
ATOM     22  C   UNL     1       4.946   5.891  -5.984  0.00  0.00    +0.252 C 
ENDBRANCH  20  21
BRANCH   1  23
ATOM     23  O   UNL     1       3.040   5.576  -8.893  0.00  0.00    -0.442 OA
BRANCH  23  24
ATOM     24  C   UNL     1       2.204   4.676  -8.327  0.00  0.00    +0.346 C 
ATOM     25  O   UNL     1       2.270   3.470  -8.654  0.00  0.00    -0.247 OA
BRANCH  24  26
ATOM     26  C   UNL     1       1.398   5.145  -7.152  0.00  0.00    +0.225 C 
ATOM     27  O   UNL     1       1.593   6.496  -6.898  0.00  0.00    -0.214 OA
BRANCH  26  28
ATOM     28  C   UNL     1      -0.070   4.953  -7.514  0.00  0.00    +0.042 C 
BRANCH  28  29
ATOM     29  C   UNL     1      -0.917   6.131  -7.123  0.00  0.00    +0.006 C 
BRANCH  29  30
ATOM     30  C   UNL     1      -2.005   5.786  -6.142  0.00  0.00    +0.031 C 
BRANCH  30  31
ATOM     31  C   UNL     1      -2.304   6.902  -5.173  0.00  0.00    +0.127 C 
ATOM     32  O   UNL     1      -3.328   7.695  -5.696  0.00  0.00    -0.226 OA
ATOM     33  C   UNL     1      -2.803   6.314  -3.860  0.00  0.00    +0.033 C 
ATOM     34  C   UNL     1      -1.076   7.706  -4.849  0.00  0.00    +0.033 C 
ENDBRANCH  30  31
ENDBRANCH  29  30
ENDBRANCH  28  29
ENDBRANCH  26  28
BRANCH  26  35
ATOM     35  C   UNL     1       1.661   4.294  -5.940  0.00  0.00    +0.151 C 
BRANCH  35  36
ATOM     36  C   UNL     1       1.495   5.049  -4.659  0.00  0.00    +0.320 C 
ATOM     37  O   UNL     1       0.444   4.899  -3.965  0.00  0.00    -0.250 OA
BRANCH  36  39
ATOM     38  C   UNL     1       2.611   6.501  -3.060  0.00  0.00    +0.256 C 
ATOM     39  O   UNL     1       2.635   5.409  -3.932  0.00  0.00    -0.444 OA
ENDBRANCH  36  39
ENDBRANCH  35  36
ENDBRANCH  26  35
ENDBRANCH  24  26
ENDBRANCH  23  24
ENDBRANCH   1  23
TORSDOF 11
ENDMDL
MODEL 4
REMARK VINA RESULT:      -7.8      2.343      5.083
REMARK  Name = 
REMARK  11 active torsions:
REMARK  status: ('A' for Active; 'I' for Inactive)
REMARK    1  A    between atoms: O_2  and  C_3
REMARK    2  A    between atoms: C_3  and  C_5
REMARK    3  A    between atoms: C_5  and  C_6
REMARK    4  A    between atoms: C_6  and  C_8
REMARK    5  A    between atoms: C_6  and  C_15
REMARK    6  A    between atoms: C_8  and  C_9
REMARK    7  A    between atoms: C_9  and  C_10
REMARK    8  A    between atoms: C_10  and  C_11
REMARK    9  A    between atoms: C_15  and  O_17
REMARK   10  A    between atoms: O_17  and  C_18
REMARK   11  A    between atoms: C_19  and  O_20
REMARK                            x       y       z     vdW  Elec       q    Type
REMARK                         _______ _______ _______ _____ _____    ______ ____
ROOT
ATOM      1  C   UNL     1       2.503   6.238  -6.295  0.00  0.00    +0.230 C 
ATOM      2  C   UNL     1       2.341   5.185  -4.909  0.00  0.00    +0.087 C 
ATOM      3  C   UNL     1       3.597   5.970  -4.225  0.00  0.00    +0.074 C 
ATOM      4  N   UNL     1       3.979   5.331  -3.038  0.00  0.00    -0.271 NA
ATOM      5  C   UNL     1       2.933   4.770  -2.231  0.00  0.00    +0.077 C 
ATOM      6  C   UNL     1       2.098   5.956  -1.760  0.00  0.00    +0.043 C 
ATOM      7  C   UNL     1       1.078   6.168  -2.839  0.00  0.00    -0.021 A 
ATOM      8  C   UNL     1      -0.158   6.479  -2.283  0.00  0.00    +0.036 A 
ATOM      9  C   UNL     1      -1.293   6.029  -2.918  0.00  0.00    +0.176 A 
ATOM     10  O   UNL     1      -2.598   5.760  -2.493  0.00  0.00    -0.435 OA
ATOM     11  C   UNL     1      -3.226   5.021  -3.531  0.00  0.00    +0.429 C 
ATOM     12  O   UNL     1      -2.496   5.478  -4.664  0.00  0.00    -0.435 OA
ATOM     13  C   UNL     1      -1.208   5.844  -4.281  0.00  0.00    +0.176 A 
ATOM     14  C   UNL     1       0.029   5.858  -4.912  0.00  0.00    +0.036 A 
ATOM     15  C   UNL     1       4.572   6.393  -2.255  0.00  0.00    +0.072 C 
ATOM     16  C   UNL     1       4.004   7.698  -2.716  0.00  0.00    +0.019 C 
ATOM     17  C   UNL     1       3.240   7.381  -3.995  0.00  0.00    +0.021 C 
ATOM     18  C   UNL     1       4.581   5.932  -5.316  0.00  0.00    +0.024 C 
ATOM     19  C   UNL     1       1.211   6.113  -4.225  0.00  0.00    -0.018 A 
ATOM     20  C   UNL     1       4.054   5.743  -6.490  0.00  0.00    +0.153 C 
ENDROOT
BRANCH  20  21
ATOM     21  O   UNL     1       4.605   5.839  -7.766  0.00  0.00    -0.472 OA
ATOM     22  C   UNL     1       5.666   4.998  -8.145  0.00  0.00    +0.252 C 
ENDBRANCH  20  21
BRANCH   1  23
ATOM     23  O   UNL     1       1.954   5.175  -7.295  0.00  0.00    -0.442 OA
BRANCH  23  24
ATOM     24  C   UNL     1       1.003   5.565  -8.174  0.00  0.00    +0.346 C 
ATOM     25  O   UNL     1      -0.206   5.379  -7.910  0.00  0.00    -0.247 OA
BRANCH  24  26
ATOM     26  C   UNL     1       1.451   6.422  -9.320  0.00  0.00    +0.225 C 
ATOM     27  O   UNL     1       1.989   7.626  -8.885  0.00  0.00    -0.214 OA
BRANCH  26  28
ATOM     28  C   UNL     1       2.556   5.659 -10.042  0.00  0.00    +0.042 C 
BRANCH  28  29
ATOM     29  C   UNL     1       3.550   6.574 -10.700  0.00  0.00    +0.006 C 
BRANCH  29  30
ATOM     30  C   UNL     1       4.293   5.930 -11.839  0.00  0.00    +0.031 C 
BRANCH  30  31
ATOM     31  C   UNL     1       5.734   6.363 -11.926  0.00  0.00    +0.127 C 
ATOM     32  O   UNL     1       6.550   5.309 -11.510  0.00  0.00    -0.226 OA
ATOM     33  C   UNL     1       6.086   6.671 -13.375  0.00  0.00    +0.033 C 
ATOM     34  C   UNL     1       5.990   7.619 -11.142  0.00  0.00    +0.033 C 
ENDBRANCH  30  31
ENDBRANCH  29  30
ENDBRANCH  28  29
ENDBRANCH  26  28
BRANCH  26  35
ATOM     35  C   UNL     1       0.341   6.621 -10.314  0.00  0.00    +0.151 C 
BRANCH  35  36
ATOM     36  C   UNL     1       0.318   5.564 -11.373  0.00  0.00    +0.320 C 
ATOM     37  O   UNL     1      -0.412   4.536 -11.228  0.00  0.00    -0.250 OA
BRANCH  36  39
ATOM     38  C   UNL     1       0.615   7.273 -13.075  0.00  0.00    +0.256 C 
ATOM     39  O   UNL     1       0.567   5.928 -12.700  0.00  0.00    -0.444 OA
ENDBRANCH  36  39
ENDBRANCH  35  36
ENDBRANCH  26  35
ENDBRANCH  24  26
ENDBRANCH  23  24
ENDBRANCH   1  23
TORSDOF 11
ENDMDL
MODEL 5
REMARK VINA RESULT:      -7.7      2.649      5.105
REMARK  Name = 
REMARK  11 active torsions:
REMARK  status: ('A' for Active; 'I' for Inactive)
REMARK    1  A    between atoms: O_2  and  C_3
REMARK    2  A    between atoms: C_3  and  C_5
REMARK    3  A    between atoms: C_5  and  C_6
REMARK    4  A    between atoms: C_6  and  C_8
REMARK    5  A    between atoms: C_6  and  C_15
REMARK    6  A    between atoms: C_8  and  C_9
REMARK    7  A    between atoms: C_9  and  C_10
REMARK    8  A    between atoms: C_10  and  C_11
REMARK    9  A    between atoms: C_15  and  O_17
REMARK   10  A    between atoms: O_17  and  C_18
REMARK   11  A    between atoms: C_19  and  O_20
REMARK                            x       y       z     vdW  Elec       q    Type
REMARK                         _______ _______ _______ _____ _____    ______ ____
ROOT
ATOM      1  C   UNL     1       2.677   6.381  -6.079  0.00  0.00    +0.230 C 
ATOM      2  C   UNL     1       2.448   5.269  -4.751  0.00  0.00    +0.087 C 
ATOM      3  C   UNL     1       3.663   6.024  -3.969  0.00  0.00    +0.074 C 
ATOM      4  N   UNL     1       3.985   5.334  -2.793  0.00  0.00    -0.271 NA
ATOM      5  C   UNL     1       2.901   4.738  -2.067  0.00  0.00    +0.077 C 
ATOM      6  C   UNL     1       2.039   5.901  -1.589  0.00  0.00    +0.043 C 
ATOM      7  C   UNL     1       1.076   6.159  -2.708  0.00  0.00    -0.021 A 
ATOM      8  C   UNL     1      -0.188   6.443  -2.204  0.00  0.00    +0.036 A 
ATOM      9  C   UNL     1      -1.287   6.021  -2.916  0.00  0.00    +0.176 A 
ATOM     10  O   UNL     1      -2.612   5.732  -2.571  0.00  0.00    -0.435 OA
ATOM     11  C   UNL     1      -3.183   5.038  -3.671  0.00  0.00    +0.429 C 
ATOM     12  O   UNL     1      -2.396   5.545  -4.745  0.00  0.00    -0.435 OA
ATOM     13  C   UNL     1      -1.131   5.895  -4.280  0.00  0.00    +0.176 A 
ATOM     14  C   UNL     1       0.136   5.938  -4.844  0.00  0.00    +0.036 A 
ATOM     15  C   UNL     1       4.534   6.362  -1.935  0.00  0.00    +0.072 C 
ATOM     16  C   UNL     1       3.987   7.685  -2.368  0.00  0.00    +0.019 C 
ATOM     17  C   UNL     1       3.290   7.424  -3.697  0.00  0.00    +0.021 C 
ATOM     18  C   UNL     1       4.703   6.035  -5.008  0.00  0.00    +0.024 C 
ATOM     19  C   UNL     1       1.280   6.164  -4.086  0.00  0.00    -0.018 A 
ATOM     20  C   UNL     1       4.238   5.897  -6.216  0.00  0.00    +0.153 C 
ENDROOT
BRANCH  20  21
ATOM     21  O   UNL     1       4.854   6.049  -7.456  0.00  0.00    -0.472 OA
ATOM     22  C   UNL     1       5.720   5.055  -7.944  0.00  0.00    +0.252 C 
ENDBRANCH  20  21
BRANCH   1  23
ATOM     23  O   UNL     1       2.184   5.362  -7.152  0.00  0.00    -0.442 OA
BRANCH  23  24
ATOM     24  C   UNL     1       1.577   5.850  -8.257  0.00  0.00    +0.346 C 
ATOM     25  O   UNL     1       0.858   6.871  -8.176  0.00  0.00    -0.247 OA
BRANCH  24  26
ATOM     26  C   UNL     1       1.998   5.268  -9.574  0.00  0.00    +0.225 C 
ATOM     27  O   UNL     1       2.892   4.219  -9.413  0.00  0.00    -0.214 OA
BRANCH  26  28
ATOM     28  C   UNL     1       0.744   4.706 -10.234  0.00  0.00    +0.042 C 
BRANCH  28  29
ATOM     29  C   UNL     1       0.368   5.453 -11.483  0.00  0.00    +0.006 C 
BRANCH  29  30
ATOM     30  C   UNL     1       0.574   4.655 -12.742  0.00  0.00    +0.031 C 
BRANCH  30  31
ATOM     31  C   UNL     1       1.023   5.498 -13.909  0.00  0.00    +0.127 C 
ATOM     32  O   UNL     1       0.336   5.087 -15.054  0.00  0.00    -0.226 OA
ATOM     33  C   UNL     1       0.662   6.954 -13.654  0.00  0.00    +0.033 C 
ATOM     34  C   UNL     1       2.513   5.446 -14.096  0.00  0.00    +0.033 C 
ENDBRANCH  30  31
ENDBRANCH  29  30
ENDBRANCH  28  29
ENDBRANCH  26  28
BRANCH  26  35
ATOM     35  C   UNL     1       2.530   6.335 -10.491  0.00  0.00    +0.151 C 
BRANCH  35  36
ATOM     36  C   UNL     1       4.009   6.235 -10.694  0.00  0.00    +0.320 C 
ATOM     37  O   UNL     1       4.482   5.395 -11.519  0.00  0.00    -0.250 OA
BRANCH  36  39
ATOM     38  C   UNL     1       6.043   7.498 -11.116  0.00  0.00    +0.256 C 
ATOM     39  O   UNL     1       4.799   7.372 -10.492  0.00  0.00    -0.444 OA
ENDBRANCH  36  39
ENDBRANCH  35  36
ENDBRANCH  26  35
ENDBRANCH  24  26
ENDBRANCH  23  24
ENDBRANCH   1  23
TORSDOF 11
ENDMDL
MODEL 6
REMARK VINA RESULT:      -7.7      1.353      2.556
REMARK  Name = 
REMARK  11 active torsions:
REMARK  status: ('A' for Active; 'I' for Inactive)
REMARK    1  A    between atoms: O_2  and  C_3
REMARK    2  A    between atoms: C_3  and  C_5
REMARK    3  A    between atoms: C_5  and  C_6
REMARK    4  A    between atoms: C_6  and  C_8
REMARK    5  A    between atoms: C_6  and  C_15
REMARK    6  A    between atoms: C_8  and  C_9
REMARK    7  A    between atoms: C_9  and  C_10
REMARK    8  A    between atoms: C_10  and  C_11
REMARK    9  A    between atoms: C_15  and  O_17
REMARK   10  A    between atoms: O_17  and  C_18
REMARK   11  A    between atoms: C_19  and  O_20
REMARK                            x       y       z     vdW  Elec       q    Type
REMARK                         _______ _______ _______ _____ _____    ______ ____
ROOT
ATOM      1  C   UNL     1       0.221   5.639  -5.310  0.00  0.00    +0.230 C 
ATOM      2  C   UNL     1      -0.093   6.954  -4.203  0.00  0.00    +0.087 C 
ATOM      3  C   UNL     1      -1.639   6.444  -4.109  0.00  0.00    +0.074 C 
ATOM      4  N   UNL     1      -2.406   7.358  -3.374  0.00  0.00    -0.271 NA
ATOM      5  C   UNL     1      -1.771   7.996  -2.256  0.00  0.00    +0.077 C 
ATOM      6  C   UNL     1      -1.474   6.879  -1.262  0.00  0.00    +0.043 C 
ATOM      7  C   UNL     1      -0.127   6.352  -1.657  0.00  0.00    -0.021 A 
ATOM      8  C   UNL     1       0.634   6.073  -0.528  0.00  0.00    +0.036 A 
ATOM      9  C   UNL     1       1.993   6.277  -0.587  0.00  0.00    +0.176 A 
ATOM     10  O   UNL     1       2.978   6.526   0.374  0.00  0.00    -0.435 OA
ATOM     11  C   UNL     1       4.135   6.965  -0.323  0.00  0.00    +0.429 C 
ATOM     12  O   UNL     1       3.944   6.330  -1.584  0.00  0.00    -0.435 OA
ATOM     13  C   UNL     1       2.583   6.164  -1.828  0.00  0.00    +0.176 A 
ATOM     14  C   UNL     1       1.798   6.112  -2.972  0.00  0.00    +0.036 A 
ATOM     15  C   UNL     1      -3.472   6.547  -2.829  0.00  0.00    +0.072 C 
ATOM     16  C   UNL     1      -2.998   5.131  -2.747  0.00  0.00    +0.019 C 
ATOM     17  C   UNL     1      -1.686   5.094  -3.519  0.00  0.00    +0.021 C 
ATOM     18  C   UNL     1      -1.982   6.321  -5.532  0.00  0.00    +0.024 C 
ATOM     19  C   UNL     1       0.408   6.111  -2.920  0.00  0.00    -0.018 A 
ATOM     20  C   UNL     1      -0.948   6.203  -6.312  0.00  0.00    +0.153 C 
ENDROOT
BRANCH  20  21
ATOM     21  O   UNL     1      -0.853   5.873  -7.663  0.00  0.00    -0.472 OA
ATOM     22  C   UNL     1      -0.760   4.528  -8.059  0.00  0.00    +0.252 C 
ENDBRANCH  20  21
BRANCH   1  23
ATOM     23  O   UNL     1       1.350   6.407  -6.064  0.00  0.00    -0.442 OA
BRANCH  23  24
ATOM     24  C   UNL     1       2.350   5.683  -6.614  0.00  0.00    +0.346 C 
ATOM     25  O   UNL     1       2.543   4.503  -6.246  0.00  0.00    -0.247 OA
BRANCH  24  26
ATOM     26  C   UNL     1       3.027   6.268  -7.819  0.00  0.00    +0.225 C 
ATOM     27  O   UNL     1       2.864   7.645  -7.884  0.00  0.00    -0.214 OA
BRANCH  26  28
ATOM     28  C   UNL     1       4.518   5.987  -7.672  0.00  0.00    +0.042 C 
BRANCH  28  29
ATOM     29  C   UNL     1       5.079   5.233  -8.846  0.00  0.00    +0.006 C 
BRANCH  29  30
ATOM     30  C   UNL     1       6.428   5.731  -9.286  0.00  0.00    +0.031 C 
BRANCH  30  31
ATOM     31  C   UNL     1       6.466   6.133 -10.739  0.00  0.00    +0.127 C 
ATOM     32  O   UNL     1       5.662   5.256 -11.473  0.00  0.00    -0.226 OA
ATOM     33  C   UNL     1       5.882   7.530 -10.895  0.00  0.00    +0.033 C 
ATOM     34  C   UNL     1       7.871   6.187 -11.269  0.00  0.00    +0.033 C 
ENDBRANCH  30  31
ENDBRANCH  29  30
ENDBRANCH  28  29
ENDBRANCH  26  28
BRANCH  26  35
ATOM     35  C   UNL     1       2.578   5.581  -9.079  0.00  0.00    +0.151 C 
BRANCH  35  36
ATOM     36  C   UNL     1       2.111   6.543 -10.125  0.00  0.00    +0.320 C 
ATOM     37  O   UNL     1       2.583   6.481 -11.301  0.00  0.00    -0.250 OA
BRANCH  36  39
ATOM     38  C   UNL     1      -0.070   6.964 -11.113  0.00  0.00    +0.256 C 
ATOM     39  O   UNL     1       0.815   7.065 -10.037  0.00  0.00    -0.444 OA
ENDBRANCH  36  39
ENDBRANCH  35  36
ENDBRANCH  26  35
ENDBRANCH  24  26
ENDBRANCH  23  24
ENDBRANCH   1  23
TORSDOF 11
ENDMDL
MODEL 7
REMARK VINA RESULT:      -7.5      2.642      8.123
REMARK  Name = 
REMARK  11 active torsions:
REMARK  status: ('A' for Active; 'I' for Inactive)
REMARK    1  A    between atoms: O_2  and  C_3
REMARK    2  A    between atoms: C_3  and  C_5
REMARK    3  A    between atoms: C_5  and  C_6
REMARK    4  A    between atoms: C_6  and  C_8
REMARK    5  A    between atoms: C_6  and  C_15
REMARK    6  A    between atoms: C_8  and  C_9
REMARK    7  A    between atoms: C_9  and  C_10
REMARK    8  A    between atoms: C_10  and  C_11
REMARK    9  A    between atoms: C_15  and  O_17
REMARK   10  A    between atoms: O_17  and  C_18
REMARK   11  A    between atoms: C_19  and  O_20
REMARK                            x       y       z     vdW  Elec       q    Type
REMARK                         _______ _______ _______ _____ _____    ______ ____
ROOT
ATOM      1  C   UNL     1       1.840   6.475  -9.335  0.00  0.00    +0.230 C 
ATOM      2  C   UNL     1       2.318   5.242 -10.478  0.00  0.00    +0.087 C 
ATOM      3  C   UNL     1       1.140   5.773 -11.473  0.00  0.00    +0.074 C 
ATOM      4  N   UNL     1       1.019   4.920 -12.578  0.00  0.00    -0.271 NA
ATOM      5  C   UNL     1       2.228   4.355 -13.104  0.00  0.00    +0.077 C 
ATOM      6  C   UNL     1       3.035   5.534 -13.635  0.00  0.00    +0.043 C 
ATOM      7  C   UNL     1       3.836   6.018 -12.463  0.00  0.00    -0.021 A 
ATOM      8  C   UNL     1       5.120   6.367 -12.865  0.00  0.00    +0.036 A 
ATOM      9  C   UNL     1       6.161   6.144 -11.993  0.00  0.00    +0.176 A 
ATOM     10  O   UNL     1       7.537   5.952 -12.158  0.00  0.00    -0.435 OA
ATOM     11  C   UNL     1       8.035   5.454 -10.924  0.00  0.00    +0.429 C 
ATOM     12  O   UNL     1       7.087   6.002 -10.013  0.00  0.00    -0.435 OA
ATOM     13  C   UNL     1       5.859   6.166 -10.648  0.00  0.00    +0.176 A 
ATOM     14  C   UNL     1       4.536   6.147 -10.230  0.00  0.00    +0.036 A 
ATOM     15  C   UNL     1       0.486   5.779 -13.613  0.00  0.00    +0.072 C 
ATOM     16  C   UNL     1       0.862   7.192 -13.300  0.00  0.00    +0.019 C 
ATOM     17  C   UNL     1       1.420   7.161 -11.883  0.00  0.00    +0.021 C 
ATOM     18  C   UNL     1      -0.010   5.802 -10.559  0.00  0.00    +0.024 C 
ATOM     19  C   UNL     1       3.472   6.166 -11.126  0.00  0.00    -0.018 A 
ATOM     20  C   UNL     1       0.322   5.855  -9.302  0.00  0.00    +0.153 C 
ENDROOT
BRANCH  20  21
ATOM     21  O   UNL     1      -0.445   6.090  -8.163  0.00  0.00    -0.472 OA
ATOM     22  C   UNL     1      -1.133   5.033  -7.540  0.00  0.00    +0.252 C 
ENDBRANCH  20  21
BRANCH   1  23
ATOM     23  O   UNL     1       2.292   5.644  -8.095  0.00  0.00    -0.442 OA
BRANCH  23  24
ATOM     24  C   UNL     1       2.665   6.318  -6.984  0.00  0.00    +0.346 C 
ATOM     25  O   UNL     1       2.932   7.539  -7.053  0.00  0.00    -0.247 OA
BRANCH  24  26
ATOM     26  C   UNL     1       2.506   5.605  -5.673  0.00  0.00    +0.225 C 
ATOM     27  O   UNL     1       1.756   4.445  -5.805  0.00  0.00    -0.214 OA
BRANCH  26  28
ATOM     28  C   UNL     1       3.901   5.201  -5.213  0.00  0.00    +0.042 C 
BRANCH  28  29
ATOM     29  C   UNL     1       4.276   5.826  -3.898  0.00  0.00    +0.006 C 
BRANCH  29  30
ATOM     30  C   UNL     1       4.403   4.830  -2.778  0.00  0.00    +0.031 C 
BRANCH  30  31
ATOM     31  C   UNL     1       3.894   5.355  -1.459  0.00  0.00    +0.127 C 
ATOM     32  O   UNL     1       4.703   4.861  -0.432  0.00  0.00    -0.226 OA
ATOM     33  C   UNL     1       4.002   6.873  -1.440  0.00  0.00    +0.033 C 
ATOM     34  C   UNL     1       2.445   5.020  -1.245  0.00  0.00    +0.033 C 
ENDBRANCH  30  31
ENDBRANCH  29  30
ENDBRANCH  28  29
ENDBRANCH  26  28
BRANCH  26  35
ATOM     35  C   UNL     1       1.951   6.525  -4.621  0.00  0.00    +0.151 C 
BRANCH  35  36
ATOM     36  C   UNL     1       0.459   6.466  -4.531  0.00  0.00    +0.320 C 
ATOM     37  O   UNL     1      -0.096   5.917  -3.531  0.00  0.00    -0.250 OA
BRANCH  36  39
ATOM     38  C   UNL     1      -1.554   7.822  -4.652  0.00  0.00    +0.256 C 
ATOM     39  O   UNL     1      -0.298   7.467  -5.149  0.00  0.00    -0.444 OA
ENDBRANCH  36  39
ENDBRANCH  35  36
ENDBRANCH  26  35
ENDBRANCH  24  26
ENDBRANCH  23  24
ENDBRANCH   1  23
TORSDOF 11
ENDMDL
MODEL 8
REMARK VINA RESULT:      -7.2      2.552      7.594
REMARK  Name = 
REMARK  11 active torsions:
REMARK  status: ('A' for Active; 'I' for Inactive)
REMARK    1  A    between atoms: O_2  and  C_3
REMARK    2  A    between atoms: C_3  and  C_5
REMARK    3  A    between atoms: C_5  and  C_6
REMARK    4  A    between atoms: C_6  and  C_8
REMARK    5  A    between atoms: C_6  and  C_15
REMARK    6  A    between atoms: C_8  and  C_9
REMARK    7  A    between atoms: C_9  and  C_10
REMARK    8  A    between atoms: C_10  and  C_11
REMARK    9  A    between atoms: C_15  and  O_17
REMARK   10  A    between atoms: O_17  and  C_18
REMARK   11  A    between atoms: C_19  and  O_20
REMARK                            x       y       z     vdW  Elec       q    Type
REMARK                         _______ _______ _______ _____ _____    ______ ____
ROOT
ATOM      1  C   UNL     1       3.197   5.590  -4.824  0.00  0.00    +0.230 C 
ATOM      2  C   UNL     1       2.415   6.624  -5.997  0.00  0.00    +0.087 C 
ATOM      3  C   UNL     1       3.346   5.941  -7.150  0.00  0.00    +0.074 C 
ATOM      4  N   UNL     1       3.171   6.606  -8.371  0.00  0.00    -0.271 NA
ATOM      5  C   UNL     1       1.850   7.079  -8.674  0.00  0.00    +0.077 C 
ATOM      6  C   UNL     1       0.988   5.830  -8.808  0.00  0.00    +0.043 C 
ATOM      7  C   UNL     1       0.505   5.538  -7.418  0.00  0.00    -0.021 A 
ATOM      8  C   UNL     1      -0.823   5.129  -7.443  0.00  0.00    +0.036 A 
ATOM      9  C   UNL     1      -1.638   5.486  -6.394  0.00  0.00    +0.176 A 
ATOM     10  O   UNL     1      -3.021   5.649  -6.254  0.00  0.00    -0.435 OA
ATOM     11  C   UNL     1      -3.233   6.337  -5.029  0.00  0.00    +0.429 C 
ATOM     12  O   UNL     1      -2.077   5.942  -4.297  0.00  0.00    -0.435 OA
ATOM     13  C   UNL     1      -1.028   5.681  -5.173  0.00  0.00    +0.176 A 
ATOM     14  C   UNL     1       0.355   5.768  -5.090  0.00  0.00    +0.036 A 
ATOM     15  C   UNL     1       3.478   5.594  -9.357  0.00  0.00    +0.072 C 
ATOM     16  C   UNL     1       3.242   4.249  -8.747  0.00  0.00    +0.019 C 
ATOM     17  C   UNL     1       3.032   4.505  -7.261  0.00  0.00    +0.021 C 
ATOM     18  C   UNL     1       4.679   6.061  -6.543  0.00  0.00    +0.024 C 
ATOM     19  C   UNL     1       1.178   5.607  -6.200  0.00  0.00    -0.018 A 
ATOM     20  C   UNL     1       4.655   6.209  -5.250  0.00  0.00    +0.153 C 
ENDROOT
BRANCH  20  21
ATOM     21  O   UNL     1       5.677   6.160  -4.305  0.00  0.00    -0.472 OA
ATOM     22  C   UNL     1       6.287   7.345  -3.858  0.00  0.00    +0.252 C 
ENDBRANCH  20  21
BRANCH   1  23
ATOM     23  O   UNL     1       3.017   6.608  -3.657  0.00  0.00    -0.442 OA
BRANCH  23  24
ATOM     24  C   UNL     1       3.163   6.152  -2.392  0.00  0.00    +0.346 C 
ATOM     25  O   UNL     1       3.396   4.940  -2.187  0.00  0.00    -0.247 OA
BRANCH  24  26
ATOM     26  C   UNL     1       3.274   7.184  -1.308  0.00  0.00    +0.225 C 
ATOM     27  O   UNL     1       3.359   8.469  -1.827  0.00  0.00    -0.214 OA
BRANCH  26  28
ATOM     28  C   UNL     1       1.993   7.105  -0.485  0.00  0.00    +0.042 C 
BRANCH  28  29
ATOM     29  C   UNL     1       0.784   6.819  -1.331  0.00  0.00    +0.006 C 
BRANCH  29  30
ATOM     30  C   UNL     1      -0.132   5.786  -0.734  0.00  0.00    +0.031 C 
BRANCH  30  31
ATOM     31  C   UNL     1      -1.568   6.240  -0.657  0.00  0.00    +0.127 C 
ATOM     32  O   UNL     1      -2.393   5.219  -1.135  0.00  0.00    -0.226 OA
ATOM     33  C   UNL     1      -1.944   6.493   0.796  0.00  0.00    +0.033 C 
ATOM     34  C   UNL     1      -1.785   7.532  -1.393  0.00  0.00    +0.033 C 
ENDBRANCH  30  31
ENDBRANCH  29  30
ENDBRANCH  28  29
ENDBRANCH  26  28
BRANCH  26  35
ATOM     35  C   UNL     1       4.410   6.870  -0.375  0.00  0.00    +0.151 C 
BRANCH  35  36
ATOM     36  C   UNL     1       4.250   7.515   0.965  0.00  0.00    +0.320 C 
ATOM     37  O   UNL     1       4.332   6.816   2.021  0.00  0.00    -0.250 OA
BRANCH  36  39
ATOM     38  C   UNL     1       5.424   9.262   2.181  0.00  0.00    +0.256 C 
ATOM     39  O   UNL     1       4.611   8.858   1.119  0.00  0.00    -0.444 OA
ENDBRANCH  36  39
ENDBRANCH  35  36
ENDBRANCH  26  35
ENDBRANCH  24  26
ENDBRANCH  23  24
ENDBRANCH   1  23
TORSDOF 11
ENDMDL
MODEL 9
REMARK VINA RESULT:      -7.2      2.248      7.642
REMARK  Name = 
REMARK  11 active torsions:
REMARK  status: ('A' for Active; 'I' for Inactive)
REMARK    1  A    between atoms: O_2  and  C_3
REMARK    2  A    between atoms: C_3  and  C_5
REMARK    3  A    between atoms: C_5  and  C_6
REMARK    4  A    between atoms: C_6  and  C_8
REMARK    5  A    between atoms: C_6  and  C_15
REMARK    6  A    between atoms: C_8  and  C_9
REMARK    7  A    between atoms: C_9  and  C_10
REMARK    8  A    between atoms: C_10  and  C_11
REMARK    9  A    between atoms: C_15  and  O_17
REMARK   10  A    between atoms: O_17  and  C_18
REMARK   11  A    between atoms: C_19  and  O_20
REMARK                            x       y       z     vdW  Elec       q    Type
REMARK                         _______ _______ _______ _____ _____    ______ ____
ROOT
ATOM      1  C   UNL     1       1.574   6.176  -7.834  0.00  0.00    +0.230 C 
ATOM      2  C   UNL     1       1.857   5.047  -9.138  0.00  0.00    +0.087 C 
ATOM      3  C   UNL     1       0.513   5.618  -9.863  0.00  0.00    +0.074 C 
ATOM      4  N   UNL     1       0.207   4.847 -10.993  0.00  0.00    -0.271 NA
ATOM      5  C   UNL     1       1.310   4.357 -11.768  0.00  0.00    +0.077 C 
ATOM      6  C   UNL     1       1.993   5.595 -12.339  0.00  0.00    +0.043 C 
ATOM      7  C   UNL     1       2.983   6.012 -11.293  0.00  0.00    -0.021 A 
ATOM      8  C   UNL     1       4.169   6.426 -11.888  0.00  0.00    +0.036 A 
ATOM      9  C   UNL     1       5.353   6.169 -11.236  0.00  0.00    +0.176 A 
ATOM     10  O   UNL     1       6.680   6.028 -11.657  0.00  0.00    -0.435 OA
ATOM     11  C   UNL     1       7.398   5.453 -10.574  0.00  0.00    +0.429 C 
ATOM     12  O   UNL     1       6.621   5.905  -9.469  0.00  0.00    -0.435 OA
ATOM     13  C   UNL     1       5.297   6.080  -9.861  0.00  0.00    +0.176 A 
ATOM     14  C   UNL     1       4.071   5.993  -9.217  0.00  0.00    +0.036 A 
ATOM     15  C   UNL     1      -0.515   5.765 -11.846  0.00  0.00    +0.072 C 
ATOM     16  C   UNL     1      -0.109   7.161 -11.494  0.00  0.00    +0.019 C 
ATOM     17  C   UNL     1       0.694   7.040 -10.205  0.00  0.00    +0.021 C 
ATOM     18  C   UNL     1      -0.455   5.545  -8.759  0.00  0.00    +0.024 C 
ATOM     19  C   UNL     1       2.863   6.049  -9.906  0.00  0.00    -0.018 A 
ATOM     20  C   UNL     1       0.095   5.513  -7.581  0.00  0.00    +0.153 C 
ENDROOT
BRANCH  20  21
ATOM     21  O   UNL     1      -0.459   5.640  -6.309  0.00  0.00    -0.472 OA
ATOM     22  C   UNL     1      -1.846   5.810  -6.153  0.00  0.00    +0.252 C 
ENDBRANCH  20  21
BRANCH   1  23
ATOM     23  O   UNL     1       2.253   5.268  -6.764  0.00  0.00    -0.442 OA
BRANCH  23  24
ATOM     24  C   UNL     1       3.152   5.837  -5.929  0.00  0.00    +0.346 C 
ATOM     25  O   UNL     1       4.290   6.141  -6.350  0.00  0.00    -0.247 OA
BRANCH  24  26
ATOM     26  C   UNL     1       2.642   6.294  -4.594  0.00  0.00    +0.225 C 
ATOM     27  O   UNL     1       1.877   7.447  -4.701  0.00  0.00    -0.214 OA
BRANCH  26  28
ATOM     28  C   UNL     1       1.737   5.190  -4.061  0.00  0.00    +0.042 C 
BRANCH  28  29
ATOM     29  C   UNL     1       0.854   5.661  -2.941  0.00  0.00    +0.006 C 
BRANCH  29  30
ATOM     30  C   UNL     1      -0.526   5.063  -2.975  0.00  0.00    +0.031 C 
BRANCH  30  31
ATOM     31  C   UNL     1      -1.505   5.781  -2.079  0.00  0.00    +0.127 C 
ATOM     32  O   UNL     1      -2.622   4.966  -1.885  0.00  0.00    -0.226 OA
ATOM     33  C   UNL     1      -0.867   6.020  -0.718  0.00  0.00    +0.033 C 
ATOM     34  C   UNL     1      -1.878   7.129  -2.626  0.00  0.00    +0.033 C 
ENDBRANCH  30  31
ENDBRANCH  29  30
ENDBRANCH  28  29
ENDBRANCH  26  28
BRANCH  26  35
ATOM     35  C   UNL     1       3.768   6.446  -3.608  0.00  0.00    +0.151 C 
BRANCH  35  36
ATOM     36  C   UNL     1       4.311   5.132  -3.146  0.00  0.00    +0.320 C 
ATOM     37  O   UNL     1       5.244   4.566  -3.795  0.00  0.00    -0.250 OA
BRANCH  36  39
ATOM     38  C   UNL     1       3.956   5.801  -0.837  0.00  0.00    +0.256 C 
ATOM     39  O   UNL     1       4.271   4.822  -1.783  0.00  0.00    -0.444 OA
ENDBRANCH  36  39
ENDBRANCH  35  36
ENDBRANCH  26  35
ENDBRANCH  24  26
ENDBRANCH  23  24
ENDBRANCH   1  23
TORSDOF 11
ENDMDL
