MODEL 1
REMARK VINA RESULT:      -9.0      0.000      0.000
REMARK  Name = 
REMARK  3 active torsions:
REMARK  status: ('A' for Active; 'I' for Inactive)
REMARK    1  A    between atoms: C_2  and  C_3
REMARK    2  A    between atoms: C_9  and  C_11
REMARK    3  A    between atoms: C_11  and  C_13
REMARK                            x       y       z     vdW  Elec       q    Type
REMARK                         _______ _______ _______ _____ _____    ______ ____
ROOT
ATOM      1  C   UNL     1       0.861   5.369  -4.588  0.00  0.00    +0.168 C 
ATOM      2  N   UNL     1       0.968   4.788  -3.124  0.00  0.00    -0.123 NA
ENDROOT
BRANCH   1   3
ATOM      3  C   UNL     1      -0.308   6.414  -4.119  0.00  0.00    +0.027 C 
ATOM      4  C   UNL     1      -1.492   5.876  -4.872  0.00  0.00    +0.002 C 
ATOM      5  C   UNL     1      -2.836   6.901  -4.590  0.00  0.00    +0.002 C 
ATOM      6  C   UNL     1      -3.326   6.467  -3.099  0.00  0.00    +0.030 C 
ATOM      7  C   UNL     1      -2.146   5.573  -2.947  0.00  0.00    +0.127 C 
ATOM      8  C   UNL     1      -2.294   5.604  -4.291  0.00  0.00    +0.030 C 
ATOM      9  C   UNL     1      -2.108   7.146  -5.041  0.00  0.00    +0.002 C 
ATOM     10  O   UNL     1      -2.715   4.903  -1.967  0.00  0.00    -0.226 OA
ATOM     11  C   UNL     1      -2.087   8.023  -3.734  0.00  0.00    +0.000 C 
ATOM     12  C   UNL     1      -0.823   6.100  -2.769  0.00  0.00    +0.032 C 
ATOM     13  C   UNL     1      -0.501   7.360  -5.039  0.00  0.00    +0.002 C 
ENDBRANCH   1   3
BRANCH   1  16
ATOM     14  C   UNL     1       3.526   5.246  -2.915  0.00  0.00    +0.167 C 
ATOM     15  N   UNL     1       2.824   6.569  -3.277  0.00  0.00    -0.269 N 
ATOM     16  C   UNL     1       2.015   6.466  -4.388  0.00  0.00    +0.244 C 
ATOM     17  O   UNL     1       2.233   6.924  -5.549  0.00  0.00    -0.273 OA
ATOM     18  C   UNL     1       3.799   7.735  -3.526  0.00  0.00    +0.076 C 
ATOM     19  C   UNL     1       5.025   6.893  -4.348  0.00  0.00    +0.023 C 
ATOM     20  C   UNL     1       5.259   7.361  -2.699  0.00  0.00    +0.022 C 
ATOM     21  C   UNL     1       4.827   5.397  -3.849  0.00  0.00    +0.037 C 
BRANCH  14  23
ATOM     22  N   UNL     1       4.096   5.693  -0.334  0.00  0.00    -0.194 NA
ATOM     23  C   UNL     1       4.081   5.794  -1.516  0.00  0.00    +0.093 C 
ENDBRANCH  14  23
ENDBRANCH   1  16
TORSDOF 3
ENDMDL
MODEL 2
REMARK VINA RESULT:      -8.1      2.526      3.522
REMARK  Name = 
REMARK  3 active torsions:
REMARK  status: ('A' for Active; 'I' for Inactive)
REMARK    1  A    between atoms: C_2  and  C_3
REMARK    2  A    between atoms: C_9  and  C_11
REMARK    3  A    between atoms: C_11  and  C_13
REMARK                            x       y       z     vdW  Elec       q    Type
REMARK                         _______ _______ _______ _____ _____    ______ ____
ROOT
ATOM      1  C   UNL     1       0.723   4.905  -4.712  0.00  0.00    +0.168 C 
ATOM      2  N   UNL     1       1.420   5.026  -3.301  0.00  0.00    -0.123 NA
ENDROOT
BRANCH   1   3
ATOM      3  C   UNL     1      -0.315   6.114  -4.335  0.00  0.00    +0.027 C 
ATOM      4  C   UNL     1      -1.615   5.534  -4.816  0.00  0.00    +0.002 C 
ATOM      5  C   UNL     1      -2.852   6.700  -4.597  0.00  0.00    +0.002 C 
ATOM      6  C   UNL     1      -3.165   6.612  -3.001  0.00  0.00    +0.030 C 
ATOM      7  C   UNL     1      -2.026   5.673  -2.807  0.00  0.00    +0.127 C 
ATOM      8  C   UNL     1      -2.348   5.449  -4.101  0.00  0.00    +0.030 C 
ATOM      9  C   UNL     1      -2.178   6.790  -5.171  0.00  0.00    +0.002 C 
ATOM     10  O   UNL     1      -2.497   5.259  -1.649  0.00  0.00    -0.226 OA
ATOM     11  C   UNL     1      -1.937   7.905  -4.086  0.00  0.00    +0.000 C 
ATOM     12  C   UNL     1      -0.664   6.117  -2.899  0.00  0.00    +0.032 C 
ATOM     13  C   UNL     1      -0.575   6.870  -5.402  0.00  0.00    +0.002 C 
ENDBRANCH   1   3
BRANCH   1  16
ATOM     14  C   UNL     1       1.593   5.063  -7.733  0.00  0.00    +0.167 C 
ATOM     15  N   UNL     1       2.459   5.610  -6.583  0.00  0.00    -0.269 N 
ATOM     16  C   UNL     1       1.730   5.911  -5.453  0.00  0.00    +0.244 C 
ATOM     17  O   UNL     1       1.427   7.059  -5.010  0.00  0.00    -0.273 OA
ATOM     18  C   UNL     1       3.262   6.868  -6.959  0.00  0.00    +0.076 C 
ATOM     19  C   UNL     1       2.097   7.657  -7.914  0.00  0.00    +0.023 C 
ATOM     20  C   UNL     1       3.437   6.865  -8.670  0.00  0.00    +0.022 C 
ATOM     21  C   UNL     1       1.172   6.462  -8.406  0.00  0.00    +0.037 C 
BRANCH  14  23
ATOM     22  N   UNL     1       3.575   3.791  -9.014  0.00  0.00    -0.194 NA
ATOM     23  C   UNL     1       2.853   4.652  -8.634  0.00  0.00    +0.093 C 
ENDBRANCH  14  23
ENDBRANCH   1  16
TORSDOF 3
ENDMDL
MODEL 3
REMARK VINA RESULT:      -8.0      3.106      6.023
REMARK  Name = 
REMARK  3 active torsions:
REMARK  status: ('A' for Active; 'I' for Inactive)
REMARK    1  A    between atoms: C_2  and  C_3
REMARK    2  A    between atoms: C_9  and  C_11
REMARK    3  A    between atoms: C_11  and  C_13
REMARK                            x       y       z     vdW  Elec       q    Type
REMARK                         _______ _______ _______ _____ _____    ______ ____
ROOT
ATOM      1  C   UNL     1       1.571   5.086  -5.540  0.00  0.00    +0.168 C 
ATOM      2  N   UNL     1       1.636   3.618  -6.116  0.00  0.00    -0.123 NA
ENDROOT
BRANCH   1   3
ATOM      3  C   UNL     1       1.563   5.710  -7.054  0.00  0.00    +0.027 C 
ATOM      4  C   UNL     1       2.878   6.437  -7.069  0.00  0.00    +0.002 C 
ATOM      5  C   UNL     1       3.035   7.258  -8.566  0.00  0.00    +0.002 C 
ATOM      6  C   UNL     1       3.445   6.069  -9.600  0.00  0.00    +0.030 C 
ATOM      7  C   UNL     1       3.240   5.045  -8.539  0.00  0.00    +0.127 C 
ATOM      8  C   UNL     1       3.531   6.144  -7.806  0.00  0.00    +0.030 C 
ATOM      9  C   UNL     1       2.431   7.465  -7.945  0.00  0.00    +0.002 C 
ATOM     10  O   UNL     1       3.951   4.150  -9.192  0.00  0.00    -0.226 OA
ATOM     11  C   UNL     1       1.591   6.921  -9.159  0.00  0.00    +0.000 C 
ATOM     12  C   UNL     1       1.927   4.701  -8.071  0.00  0.00    +0.032 C 
ATOM     13  C   UNL     1       1.172   6.985  -7.043  0.00  0.00    +0.002 C 
ENDBRANCH   1   3
BRANCH   1  16
ATOM     14  C   UNL     1      -0.319   6.830  -3.724  0.00  0.00    +0.167 C 
ATOM     15  N   UNL     1      -0.746   5.474  -4.318  0.00  0.00    -0.269 N 
ATOM     16  C   UNL     1      -0.031   5.127  -5.443  0.00  0.00    +0.244 C 
ATOM     17  O   UNL     1      -0.429   5.135  -6.646  0.00  0.00    -0.273 OA
ATOM     18  C   UNL     1      -2.240   5.404  -4.683  0.00  0.00    +0.076 C 
ATOM     19  C   UNL     1      -2.441   6.975  -5.302  0.00  0.00    +0.023 C 
ATOM     20  C   UNL     1      -3.051   6.583  -3.731  0.00  0.00    +0.022 C 
ATOM     21  C   UNL     1      -1.273   7.787  -4.596  0.00  0.00    +0.037 C 
BRANCH  14  23
ATOM     22  N   UNL     1      -1.211   6.447  -1.225  0.00  0.00    -0.194 NA
ATOM     23  C   UNL     1      -1.194   6.649  -2.394  0.00  0.00    +0.093 C 
ENDBRANCH  14  23
ENDBRANCH   1  16
TORSDOF 3
ENDMDL
MODEL 4
REMARK VINA RESULT:      -7.9      3.327      4.994
REMARK  Name = 
REMARK  3 active torsions:
REMARK  status: ('A' for Active; 'I' for Inactive)
REMARK    1  A    between atoms: C_2  and  C_3
REMARK    2  A    between atoms: C_9  and  C_11
REMARK    3  A    between atoms: C_11  and  C_13
REMARK                            x       y       z     vdW  Elec       q    Type
REMARK                         _______ _______ _______ _____ _____    ______ ____
ROOT
ATOM      1  C   UNL     1       1.934   4.675  -5.798  0.00  0.00    +0.168 C 
ATOM      2  N   UNL     1       0.455   5.128  -6.115  0.00  0.00    -0.123 NA
ENDROOT
BRANCH   1   3
ATOM      3  C   UNL     1       2.483   5.428  -7.143  0.00  0.00    +0.027 C 
ATOM      4  C   UNL     1       2.912   4.252  -7.974  0.00  0.00    +0.002 C 
ATOM      5  C   UNL     1       3.620   4.830  -9.424  0.00  0.00    +0.002 C 
ATOM      6  C   UNL     1       2.330   5.256 -10.321  0.00  0.00    +0.030 C 
ATOM      7  C   UNL     1       1.417   4.991  -9.176  0.00  0.00    +0.127 C 
ATOM      8  C   UNL     1       2.457   4.175  -8.892  0.00  0.00    +0.030 C 
ATOM      9  C   UNL     1       3.975   4.945  -8.615  0.00  0.00    +0.002 C 
ATOM     10  O   UNL     1       0.366   4.913  -9.964  0.00  0.00    -0.226 OA
ATOM     11  C   UNL     1       3.574   6.391  -9.088  0.00  0.00    +0.000 C 
ATOM     12  C   UNL     1       1.380   5.854  -8.030  0.00  0.00    +0.032 C 
ATOM     13  C   UNL     1       3.812   5.544  -7.118  0.00  0.00    +0.002 C 
ENDBRANCH   1   3
BRANCH   1  16
ATOM     14  C   UNL     1       4.108   5.034  -3.549  0.00  0.00    +0.167 C 
ATOM     15  N   UNL     1       2.816   5.872  -3.607  0.00  0.00    -0.269 N 
ATOM     16  C   UNL     1       2.272   5.941  -4.871  0.00  0.00    +0.244 C 
ATOM     17  O   UNL     1       2.273   6.932  -5.661  0.00  0.00    -0.273 OA
ATOM     18  C   UNL     1       2.996   7.316  -3.105  0.00  0.00    +0.076 C 
ATOM     19  C   UNL     1       4.533   7.640  -3.755  0.00  0.00    +0.023 C 
ATOM     20  C   UNL     1       4.363   7.325  -2.062  0.00  0.00    +0.022 C 
ATOM     21  C   UNL     1       5.164   6.191  -3.915  0.00  0.00    +0.037 C 
BRANCH  14  23
ATOM     22  N   UNL     1       4.149   4.423  -0.939  0.00  0.00    -0.194 NA
ATOM     23  C   UNL     1       4.177   5.046  -1.948  0.00  0.00    +0.093 C 
ENDBRANCH  14  23
ENDBRANCH   1  16
TORSDOF 3
ENDMDL
MODEL 5
REMARK VINA RESULT:      -7.9      3.576      5.470
REMARK  Name = 
REMARK  3 active torsions:
REMARK  status: ('A' for Active; 'I' for Inactive)
REMARK    1  A    between atoms: C_2  and  C_3
REMARK    2  A    between atoms: C_9  and  C_11
REMARK    3  A    between atoms: C_11  and  C_13
REMARK                            x       y       z     vdW  Elec       q    Type
REMARK                         _______ _______ _______ _____ _____    ______ ____
ROOT
ATOM      1  C   UNL     1       1.917   5.710  -6.281  0.00  0.00    +0.168 C 
ATOM      2  N   UNL     1       0.955   6.809  -6.878  0.00  0.00    -0.123 NA
ENDROOT
BRANCH   1   3
ATOM      3  C   UNL     1       2.999   5.963  -7.483  0.00  0.00    +0.027 C 
ATOM      4  C   UNL     1       2.887   4.671  -8.243  0.00  0.00    +0.002 C 
ATOM      5  C   UNL     1       4.028   4.685  -9.522  0.00  0.00    +0.002 C 
ATOM      6  C   UNL     1       3.324   5.642 -10.636  0.00  0.00    +0.030 C 
ATOM      7  C   UNL     1       2.226   5.977  -9.688  0.00  0.00    +0.127 C 
ATOM      8  C   UNL     1       2.623   4.767  -9.232  0.00  0.00    +0.030 C 
ATOM      9  C   UNL     1       4.247   4.664  -8.659  0.00  0.00    +0.002 C 
ATOM     10  O   UNL     1       1.441   6.389 -10.661  0.00  0.00    -0.226 OA
ATOM     11  C   UNL     1       4.745   6.068  -9.168  0.00  0.00    +0.000 C 
ATOM     12  C   UNL     1       2.449   6.824  -8.551  0.00  0.00    +0.032 C 
ATOM     13  C   UNL     1       4.166   5.379  -7.206  0.00  0.00    +0.002 C 
ENDBRANCH   1   3
BRANCH   1  16
ATOM     14  C   UNL     1       3.533   5.139  -3.639  0.00  0.00    +0.167 C 
ATOM     15  N   UNL     1       2.881   6.501  -3.945  0.00  0.00    -0.269 N 
ATOM     16  C   UNL     1       2.681   6.716  -5.291  0.00  0.00    +0.244 C 
ATOM     17  O   UNL     1       3.326   7.495  -6.054  0.00  0.00    -0.273 OA
ATOM     18  C   UNL     1       3.678   7.701  -3.401  0.00  0.00    +0.076 C 
ATOM     19  C   UNL     1       5.253   7.151  -3.728  0.00  0.00    +0.023 C 
ATOM     20  C   UNL     1       4.649   7.121  -2.107  0.00  0.00    +0.022 C 
ATOM     21  C   UNL     1       5.076   5.573  -3.775  0.00  0.00    +0.037 C 
BRANCH  14  23
ATOM     22  N   UNL     1       2.854   4.794  -1.069  0.00  0.00    -0.194 NA
ATOM     23  C   UNL     1       3.313   5.263  -2.057  0.00  0.00    +0.093 C 
ENDBRANCH  14  23
ENDBRANCH   1  16
TORSDOF 3
ENDMDL
MODEL 6
REMARK VINA RESULT:      -7.9      5.807      7.196
REMARK  Name = 
REMARK  3 active torsions:
REMARK  status: ('A' for Active; 'I' for Inactive)
REMARK    1  A    between atoms: C_2  and  C_3
REMARK    2  A    between atoms: C_9  and  C_11
REMARK    3  A    between atoms: C_11  and  C_13
REMARK                            x       y       z     vdW  Elec       q    Type
REMARK                         _______ _______ _______ _____ _____    ______ ____
ROOT
ATOM      1  C   UNL     1       3.232   4.986  -9.762  0.00  0.00    +0.168 C 
ATOM      2  N   UNL     1       3.298   3.606  -9.000  0.00  0.00    -0.123 NA
ENDROOT
BRANCH   1   3
ATOM      3  C   UNL     1       3.175   5.801  -8.344  0.00  0.00    +0.027 C 
ATOM      4  C   UNL     1       1.764   6.318  -8.368  0.00  0.00    +0.002 C 
ATOM      5  C   UNL     1       1.513   7.299  -6.985  0.00  0.00    +0.002 C 
ATOM      6  C   UNL     1       1.314   6.210  -5.790  0.00  0.00    +0.030 C 
ATOM      7  C   UNL     1       1.651   5.096  -6.718  0.00  0.00    +0.127 C 
ATOM      8  C   UNL     1       1.179   6.031  -7.573  0.00  0.00    +0.030 C 
ATOM      9  C   UNL     1       2.065   7.509  -7.651  0.00  0.00    +0.002 C 
ATOM     10  O   UNL     1       1.100   4.200  -5.927  0.00  0.00    -0.226 OA
ATOM     11  C   UNL     1       3.004   7.264  -6.413  0.00  0.00    +0.000 C 
ATOM     12  C   UNL     1       2.992   4.894  -7.191  0.00  0.00    +0.032 C 
ATOM     13  C   UNL     1       3.364   7.107  -8.535  0.00  0.00    +0.002 C 
ENDBRANCH   1   3
BRANCH   1  16
ATOM     14  C   UNL     1       4.967   6.579 -11.852  0.00  0.00    +0.167 C 
ATOM     15  N   UNL     1       5.513   5.384 -11.047  0.00  0.00    -0.269 N 
ATOM     16  C   UNL     1       4.823   5.160  -9.875  0.00  0.00    +0.244 C 
ATOM     17  O   UNL     1       5.208   5.402  -8.692  0.00  0.00    -0.273 OA
ATOM     18  C   UNL     1       7.004   5.514 -10.684  0.00  0.00    +0.076 C 
ATOM     19  C   UNL     1       7.052   7.177 -10.332  0.00  0.00    +0.023 C 
ATOM     20  C   UNL     1       7.710   6.592 -11.822  0.00  0.00    +0.022 C 
ATOM     21  C   UNL     1       5.819   7.751 -11.154  0.00  0.00    +0.037 C 
BRANCH  14  23
ATOM     22  N   UNL     1       5.907   6.033 -14.303  0.00  0.00    -0.194 NA
ATOM     23  C   UNL     1       5.867   6.265 -13.140  0.00  0.00    +0.093 C 
ENDBRANCH  14  23
ENDBRANCH   1  16
TORSDOF 3
ENDMDL
MODEL 7
REMARK VINA RESULT:      -7.6      6.906     10.042
REMARK  Name = 
REMARK  3 active torsions:
REMARK  status: ('A' for Active; 'I' for Inactive)
REMARK    1  A    between atoms: C_2  and  C_3
REMARK    2  A    between atoms: C_9  and  C_11
REMARK    3  A    between atoms: C_11  and  C_13
REMARK                            x       y       z     vdW  Elec       q    Type
REMARK                         _______ _______ _______ _____ _____    ______ ____
ROOT
ATOM      1  C   UNL     1       4.210   7.161 -10.786  0.00  0.00    +0.168 C 
ATOM      2  N   UNL     1       4.485   6.476  -9.392  0.00  0.00    -0.123 NA
ENDROOT
BRANCH   1   3
ATOM      3  C   UNL     1       5.399   6.281 -11.486  0.00  0.00    +0.027 C 
ATOM      4  C   UNL     1       6.542   7.255 -11.437  0.00  0.00    +0.002 C 
ATOM      5  C   UNL     1       7.897   6.554 -12.219  0.00  0.00    +0.002 C 
ATOM      6  C   UNL     1       8.467   5.510 -11.107  0.00  0.00    +0.030 C 
ATOM      7  C   UNL     1       7.300   5.778 -10.224  0.00  0.00    +0.127 C 
ATOM      8  C   UNL     1       7.375   6.927 -10.933  0.00  0.00    +0.030 C 
ATOM      9  C   UNL     1       7.145   6.786 -12.636  0.00  0.00    +0.002 C 
ATOM     10  O   UNL     1       7.921   5.298  -9.168  0.00  0.00    -0.226 OA
ATOM     11  C   UNL     1       7.191   5.216 -12.733  0.00  0.00    +0.000 C 
ATOM     12  C   UNL     1       5.986   5.300 -10.550  0.00  0.00    +0.032 C 
ATOM     13  C   UNL     1       5.539   6.605 -12.772  0.00  0.00    +0.002 C 
ENDBRANCH   1   3
BRANCH   1  16
ATOM     14  C   UNL     1       1.293   6.711  -9.688  0.00  0.00    +0.167 C 
ATOM     15  N   UNL     1       2.094   5.613 -10.413  0.00  0.00    -0.269 N 
ATOM     16  C   UNL     1       3.079   6.115 -11.236  0.00  0.00    +0.244 C 
ATOM     17  O   UNL     1       3.082   6.157 -12.502  0.00  0.00    -0.273 OA
ATOM     18  C   UNL     1       1.221   4.673 -11.264  0.00  0.00    +0.076 C 
ATOM     19  C   UNL     1       0.125   5.812 -11.889  0.00  0.00    +0.023 C 
ATOM     20  C   UNL     1      -0.373   4.743 -10.623  0.00  0.00    +0.022 C 
ATOM     21  C   UNL     1       0.179   6.984 -10.816  0.00  0.00    +0.037 C 
BRANCH  14  23
ATOM     22  N   UNL     1       0.199   5.381  -7.634  0.00  0.00    -0.194 NA
ATOM     23  C   UNL     1       0.525   5.678  -8.735  0.00  0.00    +0.093 C 
ENDBRANCH  14  23
ENDBRANCH   1  16
TORSDOF 3
ENDMDL
MODEL 8
REMARK VINA RESULT:      -7.5      4.689      6.167
REMARK  Name = 
REMARK  3 active torsions:
REMARK  status: ('A' for Active; 'I' for Inactive)
REMARK    1  A    between atoms: C_2  and  C_3
REMARK    2  A    between atoms: C_9  and  C_11
REMARK    3  A    between atoms: C_11  and  C_13
REMARK                            x       y       z     vdW  Elec       q    Type
REMARK                         _______ _______ _______ _____ _____    ______ ____
ROOT
ATOM      1  C   UNL     1       1.676   6.977  -8.096  0.00  0.00    +0.168 C 
ATOM      2  N   UNL     1       3.122   7.081  -8.720  0.00  0.00    -0.123 NA
ENDROOT
BRANCH   1   3
ATOM      3  C   UNL     1       1.242   5.865  -9.216  0.00  0.00    +0.027 C 
ATOM      4  C   UNL     1       0.625   6.744 -10.267  0.00  0.00    +0.002 C 
ATOM      5  C   UNL     1       0.006   5.752 -11.520  0.00  0.00    +0.002 C 
ATOM      6  C   UNL     1       1.340   5.336 -12.356  0.00  0.00    +0.030 C 
ATOM      7  C   UNL     1       2.208   5.989 -11.340  0.00  0.00    +0.127 C 
ATOM      8  C   UNL     1       1.055   6.680 -11.198  0.00  0.00    +0.030 C 
ATOM      9  C   UNL     1      -0.320   5.770 -10.692  0.00  0.00    +0.002 C 
ATOM     10  O   UNL     1       3.228   6.047 -12.170  0.00  0.00    -0.226 OA
ATOM     11  C   UNL     1       0.301   4.332 -10.849  0.00  0.00    +0.000 C 
ATOM     12  C   UNL     1       2.392   5.423 -10.033  0.00  0.00    +0.032 C 
ATOM     13  C   UNL     1      -0.051   5.557  -9.107  0.00  0.00    +0.002 C 
ENDBRANCH   1   3
BRANCH   1  16
ATOM     14  C   UNL     1       3.199   7.203  -5.349  0.00  0.00    +0.167 C 
ATOM     15  N   UNL     1       3.148   5.903  -6.174  0.00  0.00    -0.269 N 
ATOM     16  C   UNL     1       2.067   5.845  -7.027  0.00  0.00    +0.244 C 
ATOM     17  O   UNL     1       1.022   5.138  -6.906  0.00  0.00    -0.273 OA
ATOM     18  C   UNL     1       3.120   4.627  -5.312  0.00  0.00    +0.076 C 
ATOM     19  C   UNL     1       2.100   5.165  -4.064  0.00  0.00    +0.023 C 
ATOM     20  C   UNL     1       3.802   5.031  -3.787  0.00  0.00    +0.022 C 
ATOM     21  C   UNL     1       2.278   6.743  -4.114  0.00  0.00    +0.037 C 
BRANCH  14  23
ATOM     22  N   UNL     1       5.666   7.346  -4.308  0.00  0.00    -0.194 NA
ATOM     23  C   UNL     1       4.664   6.910  -4.771  0.00  0.00    +0.093 C 
ENDBRANCH  14  23
ENDBRANCH   1  16
TORSDOF 3
ENDMDL
MODEL 9
REMARK VINA RESULT:      -7.4      3.477      6.042
REMARK  Name = 
REMARK  3 active torsions:
REMARK  status: ('A' for Active; 'I' for Inactive)
REMARK    1  A    between atoms: C_2  and  C_3
REMARK    2  A    between atoms: C_9  and  C_11
REMARK    3  A    between atoms: C_11  and  C_13
REMARK                            x       y       z     vdW  Elec       q    Type
REMARK                         _______ _______ _______ _____ _____    ______ ____
ROOT
ATOM      1  C   UNL     1       1.577   6.231  -5.384  0.00  0.00    +0.168 C 
ATOM      2  N   UNL     1       1.088   5.035  -4.478  0.00  0.00    -0.123 NA
ENDROOT
BRANCH   1   3
ATOM      3  C   UNL     1       3.070   6.165  -4.716  0.00  0.00    +0.027 C 
ATOM      4  C   UNL     1       3.121   7.487  -4.002  0.00  0.00    +0.002 C 
ATOM      5  C   UNL     1       4.671   7.669  -3.293  0.00  0.00    +0.002 C 
ATOM      6  C   UNL     1       4.586   6.723  -1.970  0.00  0.00    +0.030 C 
ATOM      7  C   UNL     1       3.249   6.221  -2.387  0.00  0.00    +0.127 C 
ATOM      8  C   UNL     1       3.286   7.431  -2.990  0.00  0.00    +0.030 C 
ATOM      9  C   UNL     1       4.523   7.655  -4.171  0.00  0.00    +0.002 C 
ATOM     10  O   UNL     1       2.970   5.798  -1.172  0.00  0.00    -0.226 OA
ATOM     11  C   UNL     1       5.343   6.344  -3.878  0.00  0.00    +0.000 C 
ATOM     12  C   UNL     1       3.096   5.327  -3.500  0.00  0.00    +0.032 C 
ATOM     13  C   UNL     1       3.953   6.841  -5.453  0.00  0.00    +0.002 C 
ENDBRANCH   1   3
BRANCH   1  16
ATOM     14  C   UNL     1       1.978   6.934  -8.427  0.00  0.00    +0.167 C 
ATOM     15  N   UNL     1       1.657   5.511  -7.931  0.00  0.00    -0.269 N 
ATOM     16  C   UNL     1       2.015   5.302  -6.617  0.00  0.00    +0.244 C 
ATOM     17  O   UNL     1       2.990   4.620  -6.180  0.00  0.00    -0.273 OA
ATOM     18  C   UNL     1       2.319   4.402  -8.770  0.00  0.00    +0.076 C 
ATOM     19  C   UNL     1       3.822   5.141  -9.057  0.00  0.00    +0.023 C 
ATOM     20  C   UNL     1       2.644   5.066 -10.322  0.00  0.00    +0.022 C 
ATOM     21  C   UNL     1       3.494   6.688  -8.904  0.00  0.00    +0.037 C 
BRANCH  14  23
ATOM     22  N   UNL     1       0.319   7.133 -10.524  0.00  0.00    -0.194 NA
ATOM     23  C   UNL     1       1.184   6.752  -9.807  0.00  0.00    +0.093 C 
ENDBRANCH  14  23
ENDBRANCH   1  16
TORSDOF 3
ENDMDL
