MODEL 1
REMARK VINA RESULT:      -7.4      0.000      0.000
REMARK  Name = 
REMARK  4 active torsions:
REMARK  status: ('A' for Active; 'I' for Inactive)
REMARK    1  A    between atoms: CA_6  and  N_7
REMARK    2  A    between atoms: C_8  and  CA_10
REMARK    3  A    between atoms: CA_10  and  C_12
REMARK    4  A    between atoms: CA_21  and  C_22
REMARK                            x       y       z     vdW  Elec       q    Type
REMARK                         _______ _______ _______ _____ _____    ______ ____
ROOT
ATOM      1  C   UNL     1       2.842   6.420  -5.403  0.00  0.00    +0.013 C 
ATOM      2  C   UNL     1       2.817   5.843  -4.054  0.00  0.00    +0.068 C 
ATOM      3  CA  UNL     1       2.873   7.238  -3.159  0.00  0.00    +0.189 C 
ATOM      4  N   UNL     1       2.717   6.566  -1.738  0.00  0.00    -0.259 N 
ATOM      5  C   UNL     1       2.016   5.248  -1.820  0.00  0.00    +0.153 C 
ATOM      6  CA  UNL     1       0.920   5.912  -0.708  0.00  0.00    +0.200 C 
ATOM      7  C   UNL     1       1.953   7.157  -0.692  0.00  0.00    +0.249 C 
ATOM      8  O   UNL     1       2.089   7.818   0.360  0.00  0.00    -0.273 OA
ATOM      9  S   UNL     1       1.156   5.493  -3.515  0.00  0.00    -0.118 S 
ATOM     10  C   UNL     1       3.885   4.958  -3.705  0.00  0.00    +0.013 C 
ENDROOT
BRANCH   3  11
ATOM     11  C   UNL     1       4.513   7.255  -3.112  0.00  0.00    +0.383 C 
ATOM     12  OXT UNL     1       5.058   8.107  -4.084  0.00  0.00    -0.244 OA
ATOM     13  O   UNL     1       5.056   7.287  -2.014  0.00  0.00    -0.244 OA
ENDBRANCH   3  11
BRANCH   6  14
ATOM     14  N   UNL     1      -0.060   6.609  -1.759  0.00  0.00    -0.194 NA
ATOM     15  C   UNL     1      -1.148   7.043  -1.022  0.00  0.00    +0.264 C 
ATOM     16  O   UNL     1      -1.036   7.919  -0.203  0.00  0.00    -0.271 OA
BRANCH  15  17
ATOM     17  CA  UNL     1      -2.634   6.490  -1.398  0.00  0.00    +0.191 C 
ATOM     18  N   UNL     1      -2.125   4.967  -1.408  0.00  0.00    -0.118 NA
BRANCH  17  19
ATOM     19  C   UNL     1      -2.410   6.726  -2.999  0.00  0.00    +0.004 A 
ATOM     20  C   UNL     1      -2.149   7.952  -3.456  0.00  0.00    -0.002 A 
ATOM     21  C   UNL     1      -1.897   8.052  -4.819  0.00  0.00    -0.000 A 
ATOM     22  C   UNL     1      -1.764   6.914  -5.601  0.00  0.00    -0.000 A 
ATOM     23  C   UNL     1      -2.387   5.763  -5.137  0.00  0.00    -0.000 A 
ATOM     24  C   UNL     1      -2.654   5.625  -3.778  0.00  0.00    -0.002 A 
ENDBRANCH  17  19
ENDBRANCH  15  17
ENDBRANCH   6  14
TORSDOF 4
ENDMDL
MODEL 2
REMARK VINA RESULT:      -7.3      3.698      6.180
REMARK  Name = 
REMARK  4 active torsions:
REMARK  status: ('A' for Active; 'I' for Inactive)
REMARK    1  A    between atoms: CA_6  and  N_7
REMARK    2  A    between atoms: C_8  and  CA_10
REMARK    3  A    between atoms: CA_10  and  C_12
REMARK    4  A    between atoms: CA_21  and  C_22
REMARK                            x       y       z     vdW  Elec       q    Type
REMARK                         _______ _______ _______ _____ _____    ______ ____
ROOT
ATOM      1  C   UNL     1       3.939   4.533  -8.928  0.00  0.00    +0.013 C 
ATOM      2  C   UNL     1       3.322   5.672  -8.237  0.00  0.00    +0.068 C 
ATOM      3  CA  UNL     1       1.889   4.973  -7.783  0.00  0.00    +0.189 C 
ATOM      4  N   UNL     1       1.332   6.192  -6.947  0.00  0.00    -0.259 N 
ATOM      5  C   UNL     1       2.434   7.060  -6.429  0.00  0.00    +0.153 C 
ATOM      6  CA  UNL     1       1.761   6.772  -4.898  0.00  0.00    +0.200 C 
ATOM      7  C   UNL     1       0.601   6.020  -5.737  0.00  0.00    +0.249 C 
ATOM      8  O   UNL     1      -0.568   6.028  -5.296  0.00  0.00    -0.273 OA
ATOM      9  S   UNL     1       3.868   5.793  -6.546  0.00  0.00    -0.118 S 
ATOM     10  C   UNL     1       3.102   6.857  -9.006  0.00  0.00    +0.013 C 
ENDROOT
BRANCH   3  11
ATOM     11  C   UNL     1       1.126   5.411  -9.168  0.00  0.00    +0.383 C 
ATOM     12  OXT UNL     1       1.074   4.360 -10.095  0.00  0.00    -0.244 OA
ATOM     13  O   UNL     1       0.108   6.087  -9.075  0.00  0.00    -0.244 OA
ENDBRANCH   3  11
BRANCH   6  14
ATOM     14  N   UNL     1       2.542   5.419  -4.569  0.00  0.00    -0.194 NA
ATOM     15  C   UNL     1       2.760   5.437  -3.203  0.00  0.00    +0.264 C 
ATOM     16  O   UNL     1       1.842   5.363  -2.425  0.00  0.00    -0.271 OA
BRANCH  15  17
ATOM     17  CA  UNL     1       4.287   5.373  -2.639  0.00  0.00    +0.191 C 
ATOM     18  N   UNL     1       3.871   4.351  -1.472  0.00  0.00    -0.118 NA
BRANCH  17  19
ATOM     19  C   UNL     1       4.098   6.716  -1.728  0.00  0.00    +0.004 A 
ATOM     20  C   UNL     1       3.950   7.902  -2.321  0.00  0.00    -0.002 A 
ATOM     21  C   UNL     1       3.719   8.980  -1.476  0.00  0.00    -0.000 A 
ATOM     22  C   UNL     1       3.493   8.783  -0.121  0.00  0.00    -0.000 A 
ATOM     23  C   UNL     1       4.007   7.619   0.434  0.00  0.00    -0.000 A 
ATOM     24  C   UNL     1       4.249   6.517  -0.380  0.00  0.00    -0.002 A 
ENDBRANCH  17  19
ENDBRANCH  15  17
ENDBRANCH   6  14
TORSDOF 4
ENDMDL
MODEL 3
REMARK VINA RESULT:      -7.0      3.497      5.439
REMARK  Name = 
REMARK  4 active torsions:
REMARK  status: ('A' for Active; 'I' for Inactive)
REMARK    1  A    between atoms: CA_6  and  N_7
REMARK    2  A    between atoms: C_8  and  CA_10
REMARK    3  A    between atoms: CA_10  and  C_12
REMARK    4  A    between atoms: CA_21  and  C_22
REMARK                            x       y       z     vdW  Elec       q    Type
REMARK                         _______ _______ _______ _____ _____    ______ ____
ROOT
ATOM      1  C   UNL     1       4.785   7.323  -1.388  0.00  0.00    +0.013 C 
ATOM      2  C   UNL     1       4.146   6.141  -1.980  0.00  0.00    +0.068 C 
ATOM      3  CA  UNL     1       2.572   6.660  -1.994  0.00  0.00    +0.189 C 
ATOM      4  N   UNL     1       1.961   5.413  -2.748  0.00  0.00    -0.259 N 
ATOM      5  C   UNL     1       2.981   4.723  -3.596  0.00  0.00    +0.153 C 
ATOM      6  CA  UNL     1       1.896   4.981  -4.876  0.00  0.00    +0.200 C 
ATOM      7  C   UNL     1       0.920   5.536  -3.711  0.00  0.00    +0.249 C 
ATOM      8  O   UNL     1      -0.315   5.389  -3.835  0.00  0.00    -0.273 OA
ATOM      9  S   UNL     1       4.233   6.164  -3.759  0.00  0.00    -0.118 S 
ATOM     10  C   UNL     1       4.281   4.906  -1.272  0.00  0.00    +0.013 C 
ENDROOT
BRANCH   3  11
ATOM     11  C   UNL     1       2.262   6.066  -0.497  0.00  0.00    +0.383 C 
ATOM     12  OXT UNL     1       2.243   7.077   0.476  0.00  0.00    -0.244 OA
ATOM     13  O   UNL     1       1.394   5.208  -0.386  0.00  0.00    -0.244 OA
ENDBRANCH   3  11
BRANCH   6  14
ATOM     14  N   UNL     1       2.395   6.439  -5.292  0.00  0.00    -0.194 NA
ATOM     15  C   UNL     1       1.875   6.663  -6.555  0.00  0.00    +0.264 C 
ATOM     16  O   UNL     1       0.688   6.773  -6.729  0.00  0.00    -0.271 OA
BRANCH  15  17
ATOM     17  CA  UNL     1       2.892   6.967  -7.791  0.00  0.00    +0.191 C 
ATOM     18  N   UNL     1       2.222   8.401  -8.062  0.00  0.00    -0.118 NA
BRANCH  17  19
ATOM     19  C   UNL     1       1.958   6.167  -8.868  0.00  0.00    +0.004 A 
ATOM     20  C   UNL     1       2.029   4.837  -8.944  0.00  0.00    -0.002 A 
ATOM     21  C   UNL     1       1.147   4.231  -9.831  0.00  0.00    -0.000 A 
ATOM     22  C   UNL     1       0.152   4.968 -10.456  0.00  0.00    -0.000 A 
ATOM     23  C   UNL     1       0.380   6.331 -10.594  0.00  0.00    -0.000 A 
ATOM     24  C   UNL     1       1.254   6.974  -9.723  0.00  0.00    -0.002 A 
ENDBRANCH  17  19
ENDBRANCH  15  17
ENDBRANCH   6  14
TORSDOF 4
ENDMDL
MODEL 4
REMARK VINA RESULT:      -7.0      2.600      5.817
REMARK  Name = 
REMARK  4 active torsions:
REMARK  status: ('A' for Active; 'I' for Inactive)
REMARK    1  A    between atoms: CA_6  and  N_7
REMARK    2  A    between atoms: C_8  and  CA_10
REMARK    3  A    between atoms: CA_10  and  C_12
REMARK    4  A    between atoms: CA_21  and  C_22
REMARK                            x       y       z     vdW  Elec       q    Type
REMARK                         _______ _______ _______ _____ _____    ______ ____
ROOT
ATOM      1  C   UNL     1      -2.259   6.226  -5.845  0.00  0.00    +0.013 C 
ATOM      2  C   UNL     1      -1.482   6.722  -4.702  0.00  0.00    +0.068 C 
ATOM      3  CA  UNL     1      -1.131   5.279  -3.964  0.00  0.00    +0.189 C 
ATOM      4  N   UNL     1      -0.200   5.861  -2.829  0.00  0.00    -0.259 N 
ATOM      5  C   UNL     1       0.422   7.160  -3.231  0.00  0.00    +0.153 C 
ATOM      6  CA  UNL     1       1.903   6.398  -2.906  0.00  0.00    +0.200 C 
ATOM      7  C   UNL     1       0.970   5.187  -2.377  0.00  0.00    +0.249 C 
ATOM      8  O   UNL     1       1.380   4.470  -1.439  0.00  0.00    -0.273 OA
ATOM      9  S   UNL     1       0.226   6.988  -5.130  0.00  0.00    -0.118 S 
ATOM     10  C   UNL     1      -2.145   7.617  -3.805  0.00  0.00    +0.013 C 
ENDROOT
BRANCH   3  11
ATOM     11  C   UNL     1      -2.488   5.309  -3.043  0.00  0.00    +0.383 C 
ATOM     12  OXT UNL     1      -3.585   4.737  -3.704  0.00  0.00    -0.244 OA
ATOM     13  O   UNL     1      -2.383   5.034  -1.855  0.00  0.00    -0.244 OA
ENDBRANCH   3  11
BRANCH   6  14
ATOM     14  N   UNL     1       2.126   5.734  -4.341  0.00  0.00    -0.194 NA
ATOM     15  C   UNL     1       3.466   5.394  -4.389  0.00  0.00    +0.264 C 
ATOM     16  O   UNL     1       3.917   4.537  -3.671  0.00  0.00    -0.271 OA
BRANCH  15  17
ATOM     17  CA  UNL     1       4.407   6.029  -5.557  0.00  0.00    +0.191 C 
ATOM     18  N   UNL     1       3.910   7.519  -5.224  0.00  0.00    -0.118 NA
BRANCH  17  19
ATOM     19  C   UNL     1       3.290   5.763  -6.720  0.00  0.00    +0.004 A 
ATOM     20  C   UNL     1       2.870   4.520  -6.962  0.00  0.00    -0.002 A 
ATOM     21  C   UNL     1       1.865   4.390  -7.912  0.00  0.00    -0.000 A 
ATOM     22  C   UNL     1       1.237   5.511  -8.436  0.00  0.00    -0.000 A 
ATOM     23  C   UNL     1       1.955   6.700  -8.404  0.00  0.00    -0.000 A 
ATOM     24  C   UNL     1       2.967   6.867  -7.465  0.00  0.00    -0.002 A 
ENDBRANCH  17  19
ENDBRANCH  15  17
ENDBRANCH   6  14
TORSDOF 4
ENDMDL
MODEL 5
REMARK VINA RESULT:      -6.9      3.972      5.498
REMARK  Name = 
REMARK  4 active torsions:
REMARK  status: ('A' for Active; 'I' for Inactive)
REMARK    1  A    between atoms: CA_6  and  N_7
REMARK    2  A    between atoms: C_8  and  CA_10
REMARK    3  A    between atoms: CA_10  and  C_12
REMARK    4  A    between atoms: CA_21  and  C_22
REMARK                            x       y       z     vdW  Elec       q    Type
REMARK                         _______ _______ _______ _____ _____    ______ ____
ROOT
ATOM      1  C   UNL     1       5.592   7.265  -3.888  0.00  0.00    +0.013 C 
ATOM      2  C   UNL     1       4.513   6.303  -3.630  0.00  0.00    +0.068 C 
ATOM      3  CA  UNL     1       3.218   7.338  -3.630  0.00  0.00    +0.189 C 
ATOM      4  N   UNL     1       2.091   6.241  -3.477  0.00  0.00    -0.259 N 
ATOM      5  C   UNL     1       2.535   4.912  -3.997  0.00  0.00    +0.153 C 
ATOM      6  CA  UNL     1       1.164   4.992  -4.993  0.00  0.00    +0.200 C 
ATOM      7  C   UNL     1       0.838   6.332  -4.149  0.00  0.00    +0.249 C 
ATOM      8  O   UNL     1      -0.354   6.647  -3.947  0.00  0.00    -0.273 OA
ATOM      9  S   UNL     1       3.960   5.514  -5.128  0.00  0.00    -0.118 S 
ATOM     10  C   UNL     1       4.584   5.558  -2.412  0.00  0.00    +0.013 C 
ENDROOT
BRANCH   3  11
ATOM     11  C   UNL     1       3.329   7.630  -2.020  0.00  0.00    +0.383 C 
ATOM     12  OXT UNL     1       3.785   8.930  -1.752  0.00  0.00    -0.244 OA
ATOM     13  O   UNL     1       2.425   7.226  -1.298  0.00  0.00    -0.244 OA
ENDBRANCH   3  11
BRANCH   6  14
ATOM     14  N   UNL     1       1.824   5.795  -6.205  0.00  0.00    -0.194 NA
ATOM     15  C   UNL     1       1.235   5.288  -7.351  0.00  0.00    +0.264 C 
ATOM     16  O   UNL     1       0.064   5.460  -7.577  0.00  0.00    -0.271 OA
BRANCH  15  17
ATOM     17  CA  UNL     1       2.176   4.611  -8.496  0.00  0.00    +0.191 C 
ATOM     18  N   UNL     1       3.180   5.864  -8.489  0.00  0.00    -0.118 NA
BRANCH  17  19
ATOM     19  C   UNL     1       1.247   5.179  -9.716  0.00  0.00    +0.004 A 
ATOM     20  C   UNL     1       0.574   4.324 -10.487  0.00  0.00    -0.002 A 
ATOM     21  C   UNL     1      -0.250   4.894 -11.451  0.00  0.00    -0.000 A 
ATOM     22  C   UNL     1      -0.471   6.263 -11.475  0.00  0.00    -0.000 A 
ATOM     23  C   UNL     1       0.509   7.063 -10.901  0.00  0.00    -0.000 A 
ATOM     24  C   UNL     1       1.351   6.529  -9.930  0.00  0.00    -0.002 A 
ENDBRANCH  17  19
ENDBRANCH  15  17
ENDBRANCH   6  14
TORSDOF 4
ENDMDL
MODEL 6
REMARK VINA RESULT:      -6.9      2.712      3.798
REMARK  Name = 
REMARK  4 active torsions:
REMARK  status: ('A' for Active; 'I' for Inactive)
REMARK    1  A    between atoms: CA_6  and  N_7
REMARK    2  A    between atoms: C_8  and  CA_10
REMARK    3  A    between atoms: CA_10  and  C_12
REMARK    4  A    between atoms: CA_21  and  C_22
REMARK                            x       y       z     vdW  Elec       q    Type
REMARK                         _______ _______ _______ _____ _____    ______ ____
ROOT
ATOM      1  C   UNL     1       0.714   5.518  -8.677  0.00  0.00    +0.013 C 
ATOM      2  C   UNL     1       1.630   4.882  -7.723  0.00  0.00    +0.068 C 
ATOM      3  CA  UNL     1       2.512   6.209  -7.264  0.00  0.00    +0.189 C 
ATOM      4  N   UNL     1       3.384   5.492  -6.158  0.00  0.00    -0.259 N 
ATOM      5  C   UNL     1       2.695   4.286  -5.604  0.00  0.00    +0.153 C 
ATOM      6  CA  UNL     1       2.892   5.034  -4.093  0.00  0.00    +0.200 C 
ATOM      7  C   UNL     1       3.739   6.125  -4.934  0.00  0.00    +0.249 C 
ATOM      8  O   UNL     1       4.697   6.707  -4.381  0.00  0.00    -0.273 OA
ATOM      9  S   UNL     1       0.900   4.732  -6.105  0.00  0.00    -0.118 S 
ATOM     10  C   UNL     1       2.475   3.844  -8.227  0.00  0.00    +0.013 C 
ENDROOT
BRANCH   3  11
ATOM     11  C   UNL     1       3.622   6.002  -8.454  0.00  0.00    +0.383 C 
ATOM     12  OXT UNL     1       3.518   6.988  -9.447  0.00  0.00    -0.244 OA
ATOM     13  O   UNL     1       4.763   5.695  -8.129  0.00  0.00    -0.244 OA
ENDBRANCH   3  11
BRANCH   6  14
ATOM     14  N   UNL     1       1.557   5.910  -4.109  0.00  0.00    -0.194 NA
ATOM     15  C   UNL     1       1.455   6.456  -2.841  0.00  0.00    +0.264 C 
ATOM     16  O   UNL     1       2.253   7.268  -2.448  0.00  0.00    -0.271 OA
BRANCH  15  17
ATOM     17  CA  UNL     1       0.137   6.135  -1.940  0.00  0.00    +0.191 C 
ATOM     18  N   UNL     1       0.272   4.557  -2.205  0.00  0.00    -0.118 NA
BRANCH  17  19
ATOM     19  C   UNL     1      -0.886   6.402  -3.186  0.00  0.00    +0.004 A 
ATOM     20  C   UNL     1      -0.920   7.603  -3.767  0.00  0.00    -0.002 A 
ATOM     21  C   UNL     1      -1.761   7.723  -4.867  0.00  0.00    -0.000 A 
ATOM     22  C   UNL     1      -2.383   6.607  -5.409  0.00  0.00    -0.000 A 
ATOM     23  C   UNL     1      -2.572   5.525  -4.559  0.00  0.00    -0.000 A 
ATOM     24  C   UNL     1      -1.748   5.370  -3.449  0.00  0.00    -0.002 A 
ENDBRANCH  17  19
ENDBRANCH  15  17
ENDBRANCH   6  14
TORSDOF 4
ENDMDL
MODEL 7
REMARK VINA RESULT:      -6.8      5.142      7.725
REMARK  Name = 
REMARK  4 active torsions:
REMARK  status: ('A' for Active; 'I' for Inactive)
REMARK    1  A    between atoms: CA_6  and  N_7
REMARK    2  A    between atoms: C_8  and  CA_10
REMARK    3  A    between atoms: CA_10  and  C_12
REMARK    4  A    between atoms: CA_21  and  C_22
REMARK                            x       y       z     vdW  Elec       q    Type
REMARK                         _______ _______ _______ _____ _____    ______ ____
ROOT
ATOM      1  C   UNL     1      -0.499   6.935 -10.890  0.00  0.00    +0.013 C 
ATOM      2  C   UNL     1       0.301   5.730 -10.642  0.00  0.00    +0.068 C 
ATOM      3  CA  UNL     1       1.820   6.392 -10.705  0.00  0.00    +0.189 C 
ATOM      4  N   UNL     1       2.619   5.088 -10.310  0.00  0.00    -0.259 N 
ATOM      5  C   UNL     1       1.780   4.142  -9.513  0.00  0.00    +0.153 C 
ATOM      6  CA  UNL     1       3.007   4.247  -8.345  0.00  0.00    +0.200 C 
ATOM      7  C   UNL     1       3.770   5.120  -9.473  0.00  0.00    +0.249 C 
ATOM      8  O   UNL     1       5.018   5.078  -9.531  0.00  0.00    -0.273 OA
ATOM      9  S   UNL     1       0.457   5.386  -8.901  0.00  0.00    -0.118 S 
ATOM     10  C   UNL     1       0.164   4.655 -11.575  0.00  0.00    +0.013 C 
ENDROOT
BRANCH   3  11
ATOM     11  C   UNL     1       1.965   6.146 -12.320  0.00  0.00    +0.383 C 
ATOM     12  OXT UNL     1       1.523   7.251 -13.063  0.00  0.00    -0.244 OA
ATOM     13  O   UNL     1       2.985   5.606 -12.730  0.00  0.00    -0.244 OA
ENDBRANCH   3  11
BRANCH   6  14
ATOM     14  N   UNL     1       2.462   5.534  -7.573  0.00  0.00    -0.194 NA
ATOM     15  C   UNL     1       2.877   5.383  -6.261  0.00  0.00    +0.264 C 
ATOM     16  O   UNL     1       4.045   5.423  -5.970  0.00  0.00    -0.271 OA
BRANCH  15  17
ATOM     17  CA  UNL     1       1.761   5.337  -5.075  0.00  0.00    +0.191 C 
ATOM     18  N   UNL     1       1.164   6.764  -5.506  0.00  0.00    -0.118 NA
BRANCH  17  19
ATOM     19  C   UNL     1       2.794   5.944  -3.963  0.00  0.00    +0.004 A 
ATOM     20  C   UNL     1       3.342   5.132  -3.057  0.00  0.00    -0.002 A 
ATOM     21  C   UNL     1       4.267   5.715  -2.199  0.00  0.00    -0.000 A 
ATOM     22  C   UNL     1       4.700   7.017  -2.402  0.00  0.00    -0.000 A 
ATOM     23  C   UNL     1       3.846   7.856  -3.105  0.00  0.00    -0.000 A 
ATOM     24  C   UNL     1       2.908   7.310  -3.976  0.00  0.00    -0.002 A 
ENDBRANCH  17  19
ENDBRANCH  15  17
ENDBRANCH   6  14
TORSDOF 4
ENDMDL
MODEL 8
REMARK VINA RESULT:      -6.8      3.598      6.955
REMARK  Name = 
REMARK  4 active torsions:
REMARK  status: ('A' for Active; 'I' for Inactive)
REMARK    1  A    between atoms: CA_6  and  N_7
REMARK    2  A    between atoms: C_8  and  CA_10
REMARK    3  A    between atoms: CA_10  and  C_12
REMARK    4  A    between atoms: CA_21  and  C_22
REMARK                            x       y       z     vdW  Elec       q    Type
REMARK                         _______ _______ _______ _____ _____    ______ ____
ROOT
ATOM      1  C   UNL     1      -2.903   5.031  -5.085  0.00  0.00    +0.013 C 
ATOM      2  C   UNL     1      -1.884   6.085  -5.018  0.00  0.00    +0.068 C 
ATOM      3  CA  UNL     1      -0.840   5.388  -3.935  0.00  0.00    +0.189 C 
ATOM      4  N   UNL     1       0.282   6.499  -4.002  0.00  0.00    -0.259 N 
ATOM      5  C   UNL     1       0.253   7.240  -5.300  0.00  0.00    +0.153 C 
ATOM      6  CA  UNL     1       1.877   6.768  -5.452  0.00  0.00    +0.200 C 
ATOM      7  C   UNL     1       1.671   6.189  -3.956  0.00  0.00    +0.249 C 
ATOM      8  O   UNL     1       2.641   6.182  -3.169  0.00  0.00    -0.273 OA
ATOM      9  S   UNL     1      -0.701   5.945  -6.342  0.00  0.00    -0.118 S 
ATOM     10  C   UNL     1      -2.312   7.375  -4.573  0.00  0.00    +0.013 C 
ENDROOT
BRANCH   3  11
ATOM     11  C   UNL     1      -1.594   6.048  -2.637  0.00  0.00    +0.383 C 
ATOM     12  OXT UNL     1      -2.394   5.113  -1.962  0.00  0.00    -0.244 OA
ATOM     13  O   UNL     1      -0.952   6.809  -1.923  0.00  0.00    -0.244 OA
ENDBRANCH   3  11
BRANCH   6  14
ATOM     14  N   UNL     1       1.626   5.351  -6.143  0.00  0.00    -0.194 NA
ATOM     15  C   UNL     1       2.654   5.196  -7.057  0.00  0.00    +0.264 C 
ATOM     16  O   UNL     1       3.796   5.071  -6.693  0.00  0.00    -0.271 OA
BRANCH  15  17
ATOM     17  CA  UNL     1       2.294   4.995  -8.633  0.00  0.00    +0.191 C 
ATOM     18  N   UNL     1       2.758   3.458  -8.600  0.00  0.00    -0.118 NA
BRANCH  17  19
ATOM     19  C   UNL     1       3.743   5.571  -9.125  0.00  0.00    +0.004 A 
ATOM     20  C   UNL     1       4.864   4.966  -8.728  0.00  0.00    -0.002 A 
ATOM     21  C   UNL     1       6.047   5.473  -9.253  0.00  0.00    -0.000 A 
ATOM     22  C   UNL     1       6.024   6.434 -10.252  0.00  0.00    -0.000 A 
ATOM     23  C   UNL     1       4.885   7.226 -10.331  0.00  0.00    -0.000 A 
ATOM     24  C   UNL     1       3.682   6.751  -9.819  0.00  0.00    -0.002 A 
ENDBRANCH  17  19
ENDBRANCH  15  17
ENDBRANCH   6  14
TORSDOF 4
ENDMDL
MODEL 9
REMARK VINA RESULT:      -6.8      2.152      3.578
REMARK  Name = 
REMARK  4 active torsions:
REMARK  status: ('A' for Active; 'I' for Inactive)
REMARK    1  A    between atoms: CA_6  and  N_7
REMARK    2  A    between atoms: C_8  and  CA_10
REMARK    3  A    between atoms: CA_10  and  C_12
REMARK    4  A    between atoms: CA_21  and  C_22
REMARK                            x       y       z     vdW  Elec       q    Type
REMARK                         _______ _______ _______ _____ _____    ______ ____
ROOT
ATOM      1  C   UNL     1      -0.152   5.733  -7.196  0.00  0.00    +0.013 C 
ATOM      2  C   UNL     1       1.125   5.357  -6.576  0.00  0.00    +0.068 C 
ATOM      3  CA  UNL     1       1.668   6.862  -6.138  0.00  0.00    +0.189 C 
ATOM      4  N   UNL     1       2.967   6.386  -5.374  0.00  0.00    -0.259 N 
ATOM      5  C   UNL     1       2.829   4.989  -4.860  0.00  0.00    +0.153 C 
ATOM      6  CA  UNL     1       3.183   5.654  -3.340  0.00  0.00    +0.200 C 
ATOM      7  C   UNL     1       3.427   7.014  -4.181  0.00  0.00    +0.249 C 
ATOM      8  O   UNL     1       4.282   7.831  -3.779  0.00  0.00    -0.273 OA
ATOM      9  S   UNL     1       0.916   4.872  -4.875  0.00  0.00    -0.118 S 
ATOM     10  C   UNL     1       2.075   4.681  -7.403  0.00  0.00    +0.013 C 
ENDROOT
BRANCH   3  11
ATOM     11  C   UNL     1       2.443   7.103  -7.564  0.00  0.00    +0.383 C 
ATOM     12  OXT UNL     1       2.081   8.321  -8.159  0.00  0.00    -0.244 OA
ATOM     13  O   UNL     1       3.631   6.812  -7.630  0.00  0.00    -0.244 OA
ENDBRANCH   3  11
BRANCH   6  14
ATOM     14  N   UNL     1       1.694   6.057  -2.927  0.00  0.00    -0.194 NA
ATOM     15  C   UNL     1       1.756   6.383  -1.584  0.00  0.00    +0.264 C 
ATOM     16  O   UNL     1       2.365   7.352  -1.206  0.00  0.00    -0.271 OA
BRANCH  15  17
ATOM     17  CA  UNL     1       0.842   5.553  -0.520  0.00  0.00    +0.191 C 
ATOM     18  N   UNL     1       0.893   4.229  -1.427  0.00  0.00    -0.118 NA
BRANCH  17  19
ATOM     19  C   UNL     1      -0.556   6.109  -1.158  0.00  0.00    +0.004 A 
ATOM     20  C   UNL     1      -0.982   7.335  -0.849  0.00  0.00    -0.002 A 
ATOM     21  C   UNL     1      -2.139   7.758  -1.494  0.00  0.00    -0.000 A 
ATOM     22  C   UNL     1      -2.698   7.001  -2.513  0.00  0.00    -0.000 A 
ATOM     23  C   UNL     1      -2.415   5.642  -2.509  0.00  0.00    -0.000 A 
ATOM     24  C   UNL     1      -1.264   5.181  -1.876  0.00  0.00    -0.002 A 
ENDBRANCH  17  19
ENDBRANCH  15  17
ENDBRANCH   6  14
TORSDOF 4
ENDMDL
