MODEL 1
REMARK VINA RESULT:      -4.9      0.000      0.000
REMARK  Name = 
REMARK  5 active torsions:
REMARK  status: ('A' for Active; 'I' for Inactive)
REMARK    1  A    between atoms: P_2  and  N_3
REMARK    2  A    between atoms: N_3  and  C_4
REMARK    3  A    between atoms: N_3  and  C_7
REMARK    4  A    between atoms: C_4  and  C_5
REMARK    5  A    between atoms: C_7  and  C_8
REMARK                            x       y       z     vdW  Elec       q    Type
REMARK                         _______ _______ _______ _____ _____    ______ ____
ROOT
ATOM      1  O   UNL     1       5.457   5.188 -12.056  0.00  0.00    -0.253 OA
ATOM      2  P   UNL     1       5.221   5.778 -10.681  0.00  0.00    +0.365 P 
ATOM      3  O   UNL     1       6.526   5.401  -9.673  0.00  0.00    -0.291 OA
ATOM      4  C   UNL     1       7.471   6.423  -9.847  0.00  0.00    +0.153 C 
ATOM      5  C   UNL     1       7.439   6.959 -11.271  0.00  0.00    +0.052 C 
ATOM      6  C   UNL     1       6.356   8.006 -11.444  0.00  0.00    +0.102 C 
ATOM      7  N   UNL     1       5.166   7.534 -10.773  0.00  0.00    -0.133 NA
ENDROOT
BRANCH   2   8
ATOM      8  N   UNL     1       3.711   5.218 -10.108  0.00  0.00    -0.195 NA
BRANCH   8   9
ATOM      9  C   UNL     1       2.615   6.121 -10.194  0.00  0.00    +0.099 C 
BRANCH   9  10
ATOM     10  C   UNL     1       1.739   5.642 -11.348  0.00  0.00    +0.113 C 
ATOM     11 CL   UNL     1       0.463   4.557 -10.740  0.00  0.00    -0.112 Cl
ENDBRANCH   9  10
ENDBRANCH   8   9
BRANCH   8  12
ATOM     12  C   UNL     1       3.712   4.300  -9.036  0.00  0.00    +0.099 C 
BRANCH  12  13
ATOM     13  C   UNL     1       3.200   4.828  -7.732  0.00  0.00    +0.113 C 
ATOM     14 CL   UNL     1       4.486   5.692  -6.859  0.00  0.00    -0.112 Cl
ENDBRANCH  12  13
ENDBRANCH   8  12
ENDBRANCH   2   8
TORSDOF 5
ENDMDL
MODEL 2
REMARK VINA RESULT:      -4.9      4.933      5.799
REMARK  Name = 
REMARK  5 active torsions:
REMARK  status: ('A' for Active; 'I' for Inactive)
REMARK    1  A    between atoms: P_2  and  N_3
REMARK    2  A    between atoms: N_3  and  C_4
REMARK    3  A    between atoms: N_3  and  C_7
REMARK    4  A    between atoms: C_4  and  C_5
REMARK    5  A    between atoms: C_7  and  C_8
REMARK                            x       y       z     vdW  Elec       q    Type
REMARK                         _______ _______ _______ _____ _____    ______ ____
ROOT
ATOM      1  O   UNL     1       3.058   7.382  -6.199  0.00  0.00    -0.253 OA
ATOM      2  P   UNL     1       2.962   6.203  -5.252  0.00  0.00    +0.365 P 
ATOM      3  O   UNL     1       4.465   5.430  -5.160  0.00  0.00    -0.291 OA
ATOM      4  C   UNL     1       5.180   6.073  -4.138  0.00  0.00    +0.153 C 
ATOM      5  C   UNL     1       4.816   7.549  -4.063  0.00  0.00    +0.052 C 
ATOM      6  C   UNL     1       3.559   7.769  -3.246  0.00  0.00    +0.102 C 
ATOM      7  N   UNL     1       2.597   6.759  -3.624  0.00  0.00    -0.133 NA
ENDROOT
BRANCH   2   8
ATOM      8  N   UNL     1       1.688   5.193  -5.780  0.00  0.00    -0.195 NA
BRANCH   8   9
ATOM      9  C   UNL     1       0.484   5.228  -5.022  0.00  0.00    +0.099 C 
BRANCH   9  10
ATOM     10  C   UNL     1      -0.472   6.161  -5.758  0.00  0.00    +0.113 C 
ATOM     11 CL   UNL     1      -1.592   5.217  -6.773  0.00  0.00    -0.112 Cl
ENDBRANCH   9  10
ENDBRANCH   8   9
BRANCH   8  12
ATOM     12  C   UNL     1       2.029   3.972  -6.400  0.00  0.00    +0.099 C 
BRANCH  12  13
ATOM     13  C   UNL     1       2.468   4.073  -7.828  0.00  0.00    +0.113 C 
ATOM     14 CL   UNL     1       1.405   5.176  -8.733  0.00  0.00    -0.112 Cl
ENDBRANCH  12  13
ENDBRANCH   8  12
ENDBRANCH   2   8
TORSDOF 5
ENDMDL
MODEL 3
REMARK VINA RESULT:      -4.8      1.158      1.591
REMARK  Name = 
REMARK  5 active torsions:
REMARK  status: ('A' for Active; 'I' for Inactive)
REMARK    1  A    between atoms: P_2  and  N_3
REMARK    2  A    between atoms: N_3  and  C_4
REMARK    3  A    between atoms: N_3  and  C_7
REMARK    4  A    between atoms: C_4  and  C_5
REMARK    5  A    between atoms: C_7  and  C_8
REMARK                            x       y       z     vdW  Elec       q    Type
REMARK                         _______ _______ _______ _____ _____    ______ ____
ROOT
ATOM      1  O   UNL     1       4.845   7.391 -10.613  0.00  0.00    -0.253 OA
ATOM      2  P   UNL     1       5.028   5.889 -10.529  0.00  0.00    +0.365 P 
ATOM      3  O   UNL     1       5.538   5.299 -12.031  0.00  0.00    -0.291 OA
ATOM      4  C   UNL     1       6.939   5.376 -12.033  0.00  0.00    +0.153 C 
ATOM      5  C   UNL     1       7.421   6.568 -11.219  0.00  0.00    +0.052 C 
ATOM      6  C   UNL     1       7.497   6.237  -9.742  0.00  0.00    +0.102 C 
ATOM      7  N   UNL     1       6.307   5.495  -9.389  0.00  0.00    -0.133 NA
ENDROOT
BRANCH   2   8
ATOM      8  N   UNL     1       3.569   5.200  -9.967  0.00  0.00    -0.195 NA
BRANCH   8   9
ATOM      9  C   UNL     1       2.405   6.015 -10.034  0.00  0.00    +0.099 C 
BRANCH   9  10
ATOM     10  C   UNL     1       1.633   5.580 -11.277  0.00  0.00    +0.113 C 
ATOM     11 CL   UNL     1       0.254   4.551 -10.814  0.00  0.00    -0.112 Cl
ENDBRANCH   9  10
ENDBRANCH   8   9
BRANCH   8  12
ATOM     12  C   UNL     1       3.644   4.265  -8.913  0.00  0.00    +0.099 C 
BRANCH  12  13
ATOM     13  C   UNL     1       2.985   4.678  -7.633  0.00  0.00    +0.113 C 
ATOM     14 CL   UNL     1       4.064   5.726  -6.683  0.00  0.00    -0.112 Cl
ENDBRANCH  12  13
ENDBRANCH   8  12
ENDBRANCH   2   8
TORSDOF 5
ENDMDL
MODEL 4
REMARK VINA RESULT:      -4.8      6.028      6.862
REMARK  Name = 
REMARK  5 active torsions:
REMARK  status: ('A' for Active; 'I' for Inactive)
REMARK    1  A    between atoms: P_2  and  N_3
REMARK    2  A    between atoms: N_3  and  C_4
REMARK    3  A    between atoms: N_3  and  C_7
REMARK    4  A    between atoms: C_4  and  C_5
REMARK    5  A    between atoms: C_7  and  C_8
REMARK                            x       y       z     vdW  Elec       q    Type
REMARK                         _______ _______ _______ _____ _____    ______ ____
ROOT
ATOM      1  O   UNL     1       3.018   7.372  -5.956  0.00  0.00    -0.253 OA
ATOM      2  P   UNL     1       2.708   6.610  -4.683  0.00  0.00    +0.365 P 
ATOM      3  O   UNL     1       3.600   5.172  -4.655  0.00  0.00    -0.291 OA
ATOM      4  C   UNL     1       4.832   5.480  -4.060  0.00  0.00    +0.153 C 
ATOM      5  C   UNL     1       5.255   6.904  -4.389  0.00  0.00    +0.052 C 
ATOM      6  C   UNL     1       4.614   7.905  -3.447  0.00  0.00    +0.102 C 
ATOM      7  N   UNL     1       3.226   7.534  -3.280  0.00  0.00    -0.133 NA
ENDROOT
BRANCH   2   8
ATOM      8  N   UNL     1       1.016   6.385  -4.590  0.00  0.00    -0.195 NA
BRANCH   8   9
ATOM      9  C   UNL     1       0.551   5.345  -3.738  0.00  0.00    +0.099 C 
BRANCH   9  10
ATOM     10  C   UNL     1      -0.470   5.972  -2.794  0.00  0.00    +0.113 C 
ATOM     11 CL   UNL     1      -2.079   5.256  -3.066  0.00  0.00    -0.112 Cl
ENDBRANCH   9  10
ENDBRANCH   8   9
BRANCH   8  12
ATOM     12  C   UNL     1       0.249   6.673  -5.739  0.00  0.00    +0.099 C 
BRANCH  12  13
ATOM     13  C   UNL     1      -0.231   5.483  -6.511  0.00  0.00    +0.113 C 
ATOM     14 CL   UNL     1      -2.007   5.473  -6.604  0.00  0.00    -0.112 Cl
ENDBRANCH  12  13
ENDBRANCH   8  12
ENDBRANCH   2   8
TORSDOF 5
ENDMDL
MODEL 5
REMARK VINA RESULT:      -4.8      2.703      4.195
REMARK  Name = 
REMARK  5 active torsions:
REMARK  status: ('A' for Active; 'I' for Inactive)
REMARK    1  A    between atoms: P_2  and  N_3
REMARK    2  A    between atoms: N_3  and  C_4
REMARK    3  A    between atoms: N_3  and  C_7
REMARK    4  A    between atoms: C_4  and  C_5
REMARK    5  A    between atoms: C_7  and  C_8
REMARK                            x       y       z     vdW  Elec       q    Type
REMARK                         _______ _______ _______ _____ _____    ______ ____
ROOT
ATOM      1  O   UNL     1       3.247   3.848  -8.936  0.00  0.00    -0.253 OA
ATOM      2  P   UNL     1       3.797   5.051  -8.198  0.00  0.00    +0.365 P 
ATOM      3  O   UNL     1       5.489   5.006  -8.226  0.00  0.00    -0.291 OA
ATOM      4  C   UNL     1       5.884   5.664  -9.401  0.00  0.00    +0.153 C 
ATOM      5  C   UNL     1       4.866   5.453 -10.512  0.00  0.00    +0.052 C 
ATOM      6  C   UNL     1       3.721   6.441 -10.411  0.00  0.00    +0.102 C 
ATOM      7  N   UNL     1       3.333   6.534  -9.021  0.00  0.00    -0.133 NA
ENDROOT
BRANCH   2   8
ATOM      8  N   UNL     1       3.125   5.070  -6.627  0.00  0.00    -0.195 NA
BRANCH   8   9
ATOM      9  C   UNL     1       3.966   5.523  -5.572  0.00  0.00    +0.099 C 
BRANCH   9  10
ATOM     10  C   UNL     1       3.721   7.022  -5.426  0.00  0.00    +0.113 C 
ATOM     11 CL   UNL     1       4.966   7.749  -4.379  0.00  0.00    -0.112 Cl
ENDBRANCH   9  10
ENDBRANCH   8   9
BRANCH   8  12
ATOM     12  C   UNL     1       2.161   4.089  -6.310  0.00  0.00    +0.099 C 
BRANCH  12  13
ATOM     13  C   UNL     1       0.804   4.608  -5.948  0.00  0.00    +0.113 C 
ATOM     14 CL   UNL     1       0.002   5.309  -7.373  0.00  0.00    -0.112 Cl
ENDBRANCH  12  13
ENDBRANCH   8  12
ENDBRANCH   2   8
TORSDOF 5
ENDMDL
MODEL 6
REMARK VINA RESULT:      -4.7      4.706      5.770
REMARK  Name = 
REMARK  5 active torsions:
REMARK  status: ('A' for Active; 'I' for Inactive)
REMARK    1  A    between atoms: P_2  and  N_3
REMARK    2  A    between atoms: N_3  and  C_4
REMARK    3  A    between atoms: N_3  and  C_7
REMARK    4  A    between atoms: C_4  and  C_5
REMARK    5  A    between atoms: C_7  and  C_8
REMARK                            x       y       z     vdW  Elec       q    Type
REMARK                         _______ _______ _______ _____ _____    ______ ____
ROOT
ATOM      1  O   UNL     1       3.093   7.470  -6.341  0.00  0.00    -0.253 OA
ATOM      2  P   UNL     1       2.961   6.211  -5.509  0.00  0.00    +0.365 P 
ATOM      3  O   UNL     1       4.463   5.439  -5.411  0.00  0.00    -0.291 OA
ATOM      4  C   UNL     1       5.122   5.991  -4.302  0.00  0.00    +0.153 C 
ATOM      5  C   UNL     1       4.743   7.453  -4.115  0.00  0.00    +0.052 C 
ATOM      6  C   UNL     1       3.445   7.595  -3.344  0.00  0.00    +0.102 C 
ATOM      7  N   UNL     1       2.511   6.618  -3.858  0.00  0.00    -0.133 NA
ENDROOT
BRANCH   2   8
ATOM      8  N   UNL     1       1.722   5.247  -6.186  0.00  0.00    -0.195 NA
BRANCH   8   9
ATOM      9  C   UNL     1       2.129   4.089  -6.904  0.00  0.00    +0.099 C 
BRANCH   9  10
ATOM     10  C   UNL     1       2.296   4.509  -8.361  0.00  0.00    +0.113 C 
ATOM     11 CL   UNL     1       3.964   4.194  -8.904  0.00  0.00    -0.112 Cl
ENDBRANCH   9  10
ENDBRANCH   8   9
BRANCH   8  12
ATOM     12  C   UNL     1       0.543   5.894  -6.615  0.00  0.00    +0.099 C 
BRANCH  12  13
ATOM     13  C   UNL     1      -0.596   5.872  -5.643  0.00  0.00    +0.113 C 
ATOM     14 CL   UNL     1      -2.133   5.580  -6.489  0.00  0.00    -0.112 Cl
ENDBRANCH  12  13
ENDBRANCH   8  12
ENDBRANCH   2   8
TORSDOF 5
ENDMDL
MODEL 7
REMARK VINA RESULT:      -4.7      1.567      2.943
REMARK  Name = 
REMARK  5 active torsions:
REMARK  status: ('A' for Active; 'I' for Inactive)
REMARK    1  A    between atoms: P_2  and  N_3
REMARK    2  A    between atoms: N_3  and  C_4
REMARK    3  A    between atoms: N_3  and  C_7
REMARK    4  A    between atoms: C_4  and  C_5
REMARK    5  A    between atoms: C_7  and  C_8
REMARK                            x       y       z     vdW  Elec       q    Type
REMARK                         _______ _______ _______ _____ _____    ______ ____
ROOT
ATOM      1  O   UNL     1       4.861   7.531 -10.659  0.00  0.00    -0.253 OA
ATOM      2  P   UNL     1       4.968   6.029 -10.488  0.00  0.00    +0.365 P 
ATOM      3  O   UNL     1       5.368   5.319 -11.971  0.00  0.00    -0.291 OA
ATOM      4  C   UNL     1       6.770   5.318 -12.045  0.00  0.00    +0.153 C 
ATOM      5  C   UNL     1       7.355   6.529 -11.335  0.00  0.00    +0.052 C 
ATOM      6  C   UNL     1       7.489   6.286  -9.844  0.00  0.00    +0.102 C 
ATOM      7  N   UNL     1       6.282   5.636  -9.387  0.00  0.00    -0.133 NA
ENDROOT
BRANCH   2   8
ATOM      8  N   UNL     1       3.505   5.460  -9.812  0.00  0.00    -0.195 NA
BRANCH   8   9
ATOM      9  C   UNL     1       3.591   4.332  -8.949  0.00  0.00    +0.099 C 
BRANCH   9  10
ATOM     10  C   UNL     1       3.298   4.835  -7.538  0.00  0.00    +0.113 C 
ATOM     11 CL   UNL     1       2.168   3.730  -6.716  0.00  0.00    -0.112 Cl
ENDBRANCH   9  10
ENDBRANCH   8   9
BRANCH   8  12
ATOM     12  C   UNL     1       2.327   5.603 -10.576  0.00  0.00    +0.099 C 
BRANCH  12  13
ATOM     13  C   UNL     1       1.295   6.525 -10.006  0.00  0.00    +0.113 C 
ATOM     14 CL   UNL     1       0.012   5.601  -9.190  0.00  0.00    -0.112 Cl
ENDBRANCH  12  13
ENDBRANCH   8  12
ENDBRANCH   2   8
TORSDOF 5
ENDMDL
MODEL 8
REMARK VINA RESULT:      -4.7      4.072      5.732
REMARK  Name = 
REMARK  5 active torsions:
REMARK  status: ('A' for Active; 'I' for Inactive)
REMARK    1  A    between atoms: P_2  and  N_3
REMARK    2  A    between atoms: N_3  and  C_4
REMARK    3  A    between atoms: N_3  and  C_7
REMARK    4  A    between atoms: C_4  and  C_5
REMARK    5  A    between atoms: C_7  and  C_8
REMARK                            x       y       z     vdW  Elec       q    Type
REMARK                         _______ _______ _______ _____ _____    ______ ____
ROOT
ATOM      1  O   UNL     1       2.118   8.302  -7.833  0.00  0.00    -0.253 OA
ATOM      2  P   UNL     1       1.927   6.861  -7.407  0.00  0.00    +0.365 P 
ATOM      3  O   UNL     1       0.823   6.107  -8.444  0.00  0.00    -0.291 OA
ATOM      4  C   UNL     1       1.571   5.593  -9.514  0.00  0.00    +0.153 C 
ATOM      5  C   UNL     1       2.770   6.479  -9.816  0.00  0.00    +0.052 C 
ATOM      6  C   UNL     1       3.943   6.150  -8.912  0.00  0.00    +0.102 C 
ATOM      7  N   UNL     1       3.436   5.973  -7.570  0.00  0.00    -0.133 NA
ENDROOT
BRANCH   2   8
ATOM      8  N   UNL     1       1.464   6.845  -5.762  0.00  0.00    -0.195 NA
BRANCH   8   9
ATOM      9  C   UNL     1       2.278   6.091  -4.871  0.00  0.00    +0.099 C 
BRANCH   9  10
ATOM     10  C   UNL     1       2.952   7.092  -3.937  0.00  0.00    +0.113 C 
ATOM     11 CL   UNL     1       4.553   7.545  -4.575  0.00  0.00    -0.112 Cl
ENDBRANCH   9  10
ENDBRANCH   8   9
BRANCH   8  12
ATOM     12  C   UNL     1       0.087   6.932  -5.464  0.00  0.00    +0.099 C 
BRANCH  12  13
ATOM     13  C   UNL     1      -0.623   5.624  -5.298  0.00  0.00    +0.113 C 
ATOM     14 CL   UNL     1      -1.962   5.487  -6.461  0.00  0.00    -0.112 Cl
ENDBRANCH  12  13
ENDBRANCH   8  12
ENDBRANCH   2   8
TORSDOF 5
ENDMDL
MODEL 9
REMARK VINA RESULT:      -4.7      6.176      6.675
REMARK  Name = 
REMARK  5 active torsions:
REMARK  status: ('A' for Active; 'I' for Inactive)
REMARK    1  A    between atoms: P_2  and  N_3
REMARK    2  A    between atoms: N_3  and  C_4
REMARK    3  A    between atoms: N_3  and  C_7
REMARK    4  A    between atoms: C_4  and  C_5
REMARK    5  A    between atoms: C_7  and  C_8
REMARK                            x       y       z     vdW  Elec       q    Type
REMARK                         _______ _______ _______ _____ _____    ______ ____
ROOT
ATOM      1  O   UNL     1       2.747   7.118  -5.946  0.00  0.00    -0.253 OA
ATOM      2  P   UNL     1       2.527   6.289  -4.696  0.00  0.00    +0.365 P 
ATOM      3  O   UNL     1       3.571   4.958  -4.710  0.00  0.00    -0.291 OA
ATOM      4  C   UNL     1       4.764   5.383  -4.105  0.00  0.00    +0.153 C 
ATOM      5  C   UNL     1       5.027   6.854  -4.392  0.00  0.00    +0.052 C 
ATOM      6  C   UNL     1       4.282   7.750  -3.422  0.00  0.00    +0.102 C 
ATOM      7  N   UNL     1       2.944   7.224  -3.266  0.00  0.00    -0.133 NA
ENDROOT
BRANCH   2   8
ATOM      8  N   UNL     1       0.871   5.877  -4.610  0.00  0.00    -0.195 NA
BRANCH   8   9
ATOM      9  C   UNL     1      -0.021   6.619  -5.435  0.00  0.00    +0.099 C 
BRANCH   9  10
ATOM     10  C   UNL     1      -0.590   5.642  -6.459  0.00  0.00    +0.113 C 
ATOM     11 CL   UNL     1      -2.371   5.690  -6.430  0.00  0.00    -0.112 Cl
ENDBRANCH   9  10
ENDBRANCH   8   9
BRANCH   8  12
ATOM     12  C   UNL     1       0.371   5.406  -3.377  0.00  0.00    +0.099 C 
BRANCH  12  13
ATOM     13  C   UNL     1      -0.778   6.178  -2.808  0.00  0.00    +0.113 C 
ATOM     14 CL   UNL     1      -2.278   5.225  -2.898  0.00  0.00    -0.112 Cl
ENDBRANCH  12  13
ENDBRANCH   8  12
ENDBRANCH   2   8
TORSDOF 5
ENDMDL
