MODEL 1
REMARK VINA RESULT:      -4.2      0.000      0.000
REMARK  Name = 
REMARK  3 active torsions:
REMARK  status: ('A' for Active; 'I' for Inactive)
REMARK    1  A    between atoms: C_2  and  C_4
REMARK    2  A    between atoms: C_4  and  C_6
REMARK    3  A    between atoms: C_6  and  C_8
REMARK                            x       y       z     vdW  Elec       q    Type
REMARK                         _______ _______ _______ _____ _____    ______ ____
ROOT
ATOM      1  C   UNL     1       7.097   6.746 -12.304  0.00  0.00    +0.182 C 
ATOM      2  S   UNL     1       5.887   6.394 -13.723  0.00  0.00    -0.070 S 
ENDROOT
BRANCH   1   4
ATOM      3  O   UNL     1       7.706   4.619 -13.108  0.00  0.00    -0.245 OA
ATOM      4  C   UNL     1       8.173   5.714 -12.736  0.00  0.00    +0.377 C 
ATOM      5  O   UNL     1       9.496   5.936 -12.443  0.00  0.00    -0.245 OA
ENDBRANCH   1   4
BRANCH   1   6
ATOM      6  C   UNL     1       6.366   5.749 -11.236  0.00  0.00    +0.182 C 
ATOM      7  S   UNL     1       4.942   6.953 -10.862  0.00  0.00    -0.070 S 
BRANCH   6   8
ATOM      8  C   UNL     1       7.198   6.121  -9.984  0.00  0.00    +0.377 C 
ATOM      9  O   UNL     1       7.729   7.413 -10.014  0.00  0.00    -0.245 OA
ATOM     10  O   UNL     1       7.699   5.305  -9.224  0.00  0.00    -0.245 OA
ENDBRANCH   6   8
ENDBRANCH   1   6
TORSDOF 3
ENDMDL
MODEL 2
REMARK VINA RESULT:      -4.2      1.932      2.247
REMARK  Name = 
REMARK  3 active torsions:
REMARK  status: ('A' for Active; 'I' for Inactive)
REMARK    1  A    between atoms: C_2  and  C_4
REMARK    2  A    between atoms: C_4  and  C_6
REMARK    3  A    between atoms: C_6  and  C_8
REMARK                            x       y       z     vdW  Elec       q    Type
REMARK                         _______ _______ _______ _____ _____    ______ ____
ROOT
ATOM      1  C   UNL     1       7.151   5.424 -11.028  0.00  0.00    +0.182 C 
ATOM      2  S   UNL     1       7.714   7.118 -10.384  0.00  0.00    -0.070 S 
ENDROOT
BRANCH   1   4
ATOM      3  O   UNL     1       7.601   4.736 -13.234  0.00  0.00    -0.245 OA
ATOM      4  C   UNL     1       8.057   5.410 -12.289  0.00  0.00    +0.377 C 
ATOM      5  O   UNL     1       9.349   5.868 -12.213  0.00  0.00    -0.245 OA
ENDBRANCH   1   4
BRANCH   1   6
ATOM      6  C   UNL     1       5.833   5.994 -11.808  0.00  0.00    +0.182 C 
ATOM      7  S   UNL     1       6.226   7.819 -11.447  0.00  0.00    -0.070 S 
BRANCH   6   8
ATOM      8  C   UNL     1       4.812   5.839 -10.655  0.00  0.00    +0.377 C 
ATOM      9  O   UNL     1       4.082   6.998 -10.378  0.00  0.00    -0.245 OA
ATOM     10  O   UNL     1       4.871   4.971  -9.795  0.00  0.00    -0.245 OA
ENDBRANCH   6   8
ENDBRANCH   1   6
TORSDOF 3
ENDMDL
MODEL 3
REMARK VINA RESULT:      -4.1      0.946      3.388
REMARK  Name = 
REMARK  3 active torsions:
REMARK  status: ('A' for Active; 'I' for Inactive)
REMARK    1  A    between atoms: C_2  and  C_4
REMARK    2  A    between atoms: C_4  and  C_6
REMARK    3  A    between atoms: C_6  and  C_8
REMARK                            x       y       z     vdW  Elec       q    Type
REMARK                         _______ _______ _______ _____ _____    ______ ____
ROOT
ATOM      1  C   UNL     1       6.174   5.552 -10.929  0.00  0.00    +0.182 C 
ATOM      2  S   UNL     1       4.802   6.863 -10.969  0.00  0.00    -0.070 S 
ENDROOT
BRANCH   1   4
ATOM      3  O   UNL     1       7.626   6.234  -9.207  0.00  0.00    -0.245 OA
ATOM      4  C   UNL     1       6.516   5.707  -9.423  0.00  0.00    +0.377 C 
ATOM      5  O   UNL     1       5.768   5.053  -8.476  0.00  0.00    -0.245 OA
ENDBRANCH   1   4
BRANCH   1   6
ATOM      6  C   UNL     1       7.353   6.557 -11.447  0.00  0.00    +0.182 C 
ATOM      7  S   UNL     1       6.415   7.090 -13.013  0.00  0.00    -0.070 S 
BRANCH   6   8
ATOM      8  C   UNL     1       8.237   5.506 -12.163  0.00  0.00    +0.377 C 
ATOM      9  O   UNL     1       9.581   5.873 -12.277  0.00  0.00    -0.245 OA
ATOM     10  O   UNL     1       7.806   4.639 -12.910  0.00  0.00    -0.245 OA
ENDBRANCH   6   8
ENDBRANCH   1   6
TORSDOF 3
ENDMDL
MODEL 4
REMARK VINA RESULT:      -4.1      1.461      3.516
REMARK  Name = 
REMARK  3 active torsions:
REMARK  status: ('A' for Active; 'I' for Inactive)
REMARK    1  A    between atoms: C_2  and  C_4
REMARK    2  A    between atoms: C_4  and  C_6
REMARK    3  A    between atoms: C_6  and  C_8
REMARK                            x       y       z     vdW  Elec       q    Type
REMARK                         _______ _______ _______ _____ _____    ______ ____
ROOT
ATOM      1  C   UNL     1       6.188   6.008 -11.485  0.00  0.00    +0.182 C 
ATOM      2  S   UNL     1       4.500   6.534 -10.795  0.00  0.00    -0.070 S 
ENDROOT
BRANCH   1   4
ATOM      3  O   UNL     1       7.798   7.125 -10.179  0.00  0.00    -0.245 OA
ATOM      4  C   UNL     1       6.950   7.299 -11.078  0.00  0.00    +0.377 C 
ATOM      5  O   UNL     1       6.494   8.526 -11.490  0.00  0.00    -0.245 OA
ENDBRANCH   1   4
BRANCH   1   6
ATOM      6  C   UNL     1       5.883   6.500 -13.012  0.00  0.00    +0.182 C 
ATOM      7  S   UNL     1       4.532   5.198 -13.319  0.00  0.00    -0.070 S 
BRANCH   6   8
ATOM      8  C   UNL     1       7.007   5.709 -13.726  0.00  0.00    +0.377 C 
ATOM      9  O   UNL     1       7.036   5.883 -15.113  0.00  0.00    -0.245 OA
ATOM     10  O   UNL     1       7.567   4.731 -13.251  0.00  0.00    -0.245 OA
ENDBRANCH   6   8
ENDBRANCH   1   6
TORSDOF 3
ENDMDL
MODEL 5
REMARK VINA RESULT:      -4.1     11.072     12.554
REMARK  Name = 
REMARK  3 active torsions:
REMARK  status: ('A' for Active; 'I' for Inactive)
REMARK    1  A    between atoms: C_2  and  C_4
REMARK    2  A    between atoms: C_4  and  C_6
REMARK    3  A    between atoms: C_6  and  C_8
REMARK                            x       y       z     vdW  Elec       q    Type
REMARK                         _______ _______ _______ _____ _____    ______ ____
ROOT
ATOM      1  C   UNL     1      -1.419   6.631  -2.696  0.00  0.00    +0.182 C 
ATOM      2  S   UNL     1      -0.398   5.718  -1.383  0.00  0.00    -0.070 S 
ENDROOT
BRANCH   1   4
ATOM      3  O   UNL     1      -2.693   4.669  -2.432  0.00  0.00    -0.245 OA
ATOM      4  C   UNL     1      -2.764   5.914  -2.397  0.00  0.00    +0.377 C 
ATOM      5  O   UNL     1      -3.937   6.626  -2.389  0.00  0.00    -0.245 OA
ENDBRANCH   1   4
BRANCH   1   6
ATOM      6  C   UNL     1      -1.001   5.640  -3.925  0.00  0.00    +0.182 C 
ATOM      7  S   UNL     1       0.820   6.188  -3.941  0.00  0.00    -0.070 S 
BRANCH   6   8
ATOM      8  C   UNL     1      -1.432   6.552  -5.099  0.00  0.00    +0.377 C 
ATOM      9  O   UNL     1      -1.180   7.911  -4.889  0.00  0.00    -0.245 OA
ATOM     10  O   UNL     1      -2.255   6.238  -5.948  0.00  0.00    -0.245 OA
ENDBRANCH   6   8
ENDBRANCH   1   6
TORSDOF 3
ENDMDL
MODEL 6
REMARK VINA RESULT:      -4.1     10.983     11.969
REMARK  Name = 
REMARK  3 active torsions:
REMARK  status: ('A' for Active; 'I' for Inactive)
REMARK    1  A    between atoms: C_2  and  C_4
REMARK    2  A    between atoms: C_4  and  C_6
REMARK    3  A    between atoms: C_6  and  C_8
REMARK                            x       y       z     vdW  Elec       q    Type
REMARK                         _______ _______ _______ _____ _____    ______ ____
ROOT
ATOM      1  C   UNL     1      -0.911   6.464  -3.280  0.00  0.00    +0.182 C 
ATOM      2  S   UNL     1       0.955   6.116  -3.255  0.00  0.00    -0.070 S 
ENDROOT
BRANCH   1   4
ATOM      3  O   UNL     1      -0.338   4.779  -1.739  0.00  0.00    -0.245 OA
ATOM      4  C   UNL     1      -1.309   5.340  -2.285  0.00  0.00    +0.377 C 
ATOM      5  O   UNL     1      -2.595   4.861  -2.267  0.00  0.00    -0.245 OA
ENDBRANCH   1   4
BRANCH   1   6
ATOM      6  C   UNL     1      -1.208   5.579  -4.620  0.00  0.00    +0.182 C 
ATOM      7  S   UNL     1       0.303   6.237  -5.569  0.00  0.00    -0.070 S 
BRANCH   6   8
ATOM      8  C   UNL     1      -2.224   6.534  -5.293  0.00  0.00    +0.377 C 
ATOM      9  O   UNL     1      -2.683   6.095  -6.538  0.00  0.00    -0.245 OA
ATOM     10  O   UNL     1      -2.342   7.719  -5.015  0.00  0.00    -0.245 OA
ENDBRANCH   6   8
ENDBRANCH   1   6
TORSDOF 3
ENDMDL
MODEL 7
REMARK VINA RESULT:      -4.0      2.218      2.668
REMARK  Name = 
REMARK  3 active torsions:
REMARK  status: ('A' for Active; 'I' for Inactive)
REMARK    1  A    between atoms: C_2  and  C_4
REMARK    2  A    between atoms: C_4  and  C_6
REMARK    3  A    between atoms: C_6  and  C_8
REMARK                            x       y       z     vdW  Elec       q    Type
REMARK                         _______ _______ _______ _____ _____    ______ ____
ROOT
ATOM      1  C   UNL     1       6.451   6.415 -12.322  0.00  0.00    +0.182 C 
ATOM      2  S   UNL     1       6.476   5.904 -14.150  0.00  0.00    -0.070 S 
ENDROOT
BRANCH   1   4
ATOM      3  O   UNL     1       7.881   4.583 -12.699  0.00  0.00    -0.245 OA
ATOM      4  C   UNL     1       7.583   5.458 -11.861  0.00  0.00    +0.377 C 
ATOM      5  O   UNL     1       7.976   5.440 -10.546  0.00  0.00    -0.245 OA
ENDBRANCH   1   4
BRANCH   1   6
ATOM      6  C   UNL     1       5.235   5.408 -11.904  0.00  0.00    +0.182 C 
ATOM      7  S   UNL     1       4.356   5.532 -13.586  0.00  0.00    -0.070 S 
BRANCH   6   8
ATOM      8  C   UNL     1       4.327   6.443 -11.194  0.00  0.00    +0.377 C 
ATOM      9  O   UNL     1       3.012   6.467 -11.665  0.00  0.00    -0.245 OA
ATOM     10  O   UNL     1       4.743   7.417 -10.582  0.00  0.00    -0.245 OA
ENDBRANCH   6   8
ENDBRANCH   1   6
TORSDOF 3
ENDMDL
MODEL 8
REMARK VINA RESULT:      -4.0     10.640     11.755
REMARK  Name = 
REMARK  3 active torsions:
REMARK  status: ('A' for Active; 'I' for Inactive)
REMARK    1  A    between atoms: C_2  and  C_4
REMARK    2  A    between atoms: C_4  and  C_6
REMARK    3  A    between atoms: C_6  and  C_8
REMARK                            x       y       z     vdW  Elec       q    Type
REMARK                         _______ _______ _______ _____ _____    ______ ____
ROOT
ATOM      1  C   UNL     1      -1.287   5.566  -4.772  0.00  0.00    +0.182 C 
ATOM      2  S   UNL     1      -0.240   7.135  -4.975  0.00  0.00    -0.070 S 
ENDROOT
BRANCH   1   4
ATOM      3  O   UNL     1      -0.570   5.166  -6.978  0.00  0.00    -0.245 OA
ATOM      4  C   UNL     1      -1.587   5.362  -6.282  0.00  0.00    +0.377 C 
ATOM      5  O   UNL     1      -2.828   5.664  -6.784  0.00  0.00    -0.245 OA
ENDBRANCH   1   4
BRANCH   1   6
ATOM      6  C   UNL     1      -2.681   6.358  -4.457  0.00  0.00    +0.182 C 
ATOM      7  S   UNL     1      -1.842   8.050  -4.240  0.00  0.00    -0.070 S 
BRANCH   6   8
ATOM      8  C   UNL     1      -2.771   6.050  -2.942  0.00  0.00    +0.377 C 
ATOM      9  O   UNL     1      -2.689   4.690  -2.630  0.00  0.00    -0.245 OA
ATOM     10  O   UNL     1      -3.255   6.808  -2.114  0.00  0.00    -0.245 OA
ENDBRANCH   6   8
ENDBRANCH   1   6
TORSDOF 3
ENDMDL
MODEL 9
REMARK VINA RESULT:      -4.0      2.187      3.609
REMARK  Name = 
REMARK  3 active torsions:
REMARK  status: ('A' for Active; 'I' for Inactive)
REMARK    1  A    between atoms: C_2  and  C_4
REMARK    2  A    between atoms: C_4  and  C_6
REMARK    3  A    between atoms: C_6  and  C_8
REMARK                            x       y       z     vdW  Elec       q    Type
REMARK                         _______ _______ _______ _____ _____    ______ ____
ROOT
ATOM      1  C   UNL     1       5.174   5.422 -11.680  0.00  0.00    +0.182 C 
ATOM      2  S   UNL     1       4.328   5.385 -13.378  0.00  0.00    -0.070 S 
ENDROOT
BRANCH   1   4
ATOM      3  O   UNL     1       4.913   7.542 -10.691  0.00  0.00    -0.245 OA
ATOM      4  C   UNL     1       4.281   6.534 -11.067  0.00  0.00    +0.377 C 
ATOM      5  O   UNL     1       2.977   6.264 -10.733  0.00  0.00    -0.245 OA
ENDBRANCH   1   4
BRANCH   1   6
ATOM      6  C   UNL     1       6.372   6.436 -12.134  0.00  0.00    +0.182 C 
ATOM      7  S   UNL     1       6.355   5.879 -13.952  0.00  0.00    -0.070 S 
BRANCH   6   8
ATOM      8  C   UNL     1       7.575   5.550 -11.727  0.00  0.00    +0.377 C 
ATOM      9  O   UNL     1       7.916   4.579 -12.674  0.00  0.00    -0.245 OA
ATOM     10  O   UNL     1       7.961   5.400 -10.577  0.00  0.00    -0.245 OA
ENDBRANCH   6   8
ENDBRANCH   1   6
TORSDOF 3
ENDMDL
