MODEL 1
REMARK VINA RESULT:      -6.3      0.000      0.000
REMARK  Name = 
REMARK  3 active torsions:
REMARK  status: ('A' for Active; 'I' for Inactive)
REMARK    1  A    between atoms: C_7  and  O_8
REMARK    2  A    between atoms: O_8  and  C_9
REMARK    3  A    between atoms: C_9  and  C_10
REMARK                            x       y       z     vdW  Elec       q    Type
REMARK                         _______ _______ _______ _____ _____    ______ ____
ROOT
ATOM      1  C   UNL     1      -2.424   5.742  -6.477  0.00  0.00    +0.031 C 
ATOM      2  C   UNL     1      -0.929   5.707  -6.382  0.00  0.00    -0.019 A 
ATOM      3  C   UNL     1      -0.416   5.516  -5.132  0.00  0.00    +0.033 A 
ATOM      4  C   UNL     1       0.843   4.981  -4.877  0.00  0.00    +0.138 A 
ATOM      5  C   UNL     1       1.589   4.666  -6.003  0.00  0.00    +0.033 A 
ATOM      6  C   UNL     1       1.181   5.044  -7.277  0.00  0.00    -0.019 A 
ATOM      7  C   UNL     1       1.979   4.698  -8.494  0.00  0.00    +0.031 C 
ATOM      8  C   UNL     1      -0.127   5.441  -7.474  0.00  0.00    -0.008 A 
ENDROOT
BRANCH   4   9
ATOM      9  O   UNL     1       1.394   5.367  -3.674  0.00  0.00    -0.472 OA
BRANCH   9  10
ATOM     10  C   UNL     1       0.856   6.276  -2.765  0.00  0.00    +0.251 C 
BRANCH  10  11
ATOM     11  C   UNL     1       0.901   5.487  -1.304  0.00  0.00    +0.235 C 
ATOM     12  O   UNL     1      -0.357   4.660  -1.656  0.00  0.00    -0.432 OA
ATOM     13  C   UNL     1      -1.424   5.485  -1.568  0.00  0.00    +0.421 C 
ATOM     14  O   UNL     1      -2.592   5.121  -1.903  0.00  0.00    -0.225 OA
ATOM     15  N   UNL     1      -1.178   6.063  -0.275  0.00  0.00    -0.165 NA
ATOM     16  C   UNL     1       0.068   6.709  -0.556  0.00  0.00    +0.166 C 
ENDBRANCH  10  11
ENDBRANCH   9  10
ENDBRANCH   4   9
TORSDOF 3
ENDMDL
MODEL 2
REMARK VINA RESULT:      -6.2      5.247      7.892
REMARK  Name = 
REMARK  3 active torsions:
REMARK  status: ('A' for Active; 'I' for Inactive)
REMARK    1  A    between atoms: C_7  and  O_8
REMARK    2  A    between atoms: O_8  and  C_9
REMARK    3  A    between atoms: C_9  and  C_10
REMARK                            x       y       z     vdW  Elec       q    Type
REMARK                         _______ _______ _______ _____ _____    ______ ____
ROOT
ATOM      1  C   UNL     1       9.030   5.845 -12.018  0.00  0.00    +0.031 C 
ATOM      2  C   UNL     1       7.619   5.410 -11.762  0.00  0.00    -0.019 A 
ATOM      3  C   UNL     1       7.190   5.507 -10.470  0.00  0.00    +0.033 A 
ATOM      4  C   UNL     1       5.856   5.630 -10.097  0.00  0.00    +0.138 A 
ATOM      5  C   UNL     1       4.947   5.620 -11.144  0.00  0.00    +0.033 A 
ATOM      6  C   UNL     1       5.334   5.312 -12.442  0.00  0.00    -0.019 A 
ATOM      7  C   UNL     1       4.358   5.310 -13.576  0.00  0.00    +0.031 C 
ATOM      8  C   UNL     1       6.676   5.339 -12.768  0.00  0.00    -0.008 A 
ENDROOT
BRANCH   4   9
ATOM      9  O   UNL     1       5.573   5.166  -8.830  0.00  0.00    -0.472 OA
BRANCH   9  10
ATOM     10  C   UNL     1       4.874   5.842  -7.831  0.00  0.00    +0.251 C 
BRANCH  10  11
ATOM     11  C   UNL     1       3.422   5.043  -7.719  0.00  0.00    +0.235 C 
ATOM     12  O   UNL     1       2.676   6.200  -8.426  0.00  0.00    -0.432 OA
ATOM     13  C   UNL     1       2.576   7.218  -7.543  0.00  0.00    +0.421 C 
ATOM     14  O   UNL     1       2.105   8.351  -7.866  0.00  0.00    -0.225 OA
ATOM     15  N   UNL     1       2.062   6.506  -6.405  0.00  0.00    -0.165 NA
ATOM     16  C   UNL     1       3.162   5.617  -6.186  0.00  0.00    +0.166 C 
ENDBRANCH  10  11
ENDBRANCH   9  10
ENDBRANCH   4   9
TORSDOF 3
ENDMDL
MODEL 3
REMARK VINA RESULT:      -6.1      6.394      9.140
REMARK  Name = 
REMARK  3 active torsions:
REMARK  status: ('A' for Active; 'I' for Inactive)
REMARK    1  A    between atoms: C_7  and  O_8
REMARK    2  A    between atoms: O_8  and  C_9
REMARK    3  A    between atoms: C_9  and  C_10
REMARK                            x       y       z     vdW  Elec       q    Type
REMARK                         _______ _______ _______ _____ _____    ______ ____
ROOT
ATOM      1  C   UNL     1       0.281   4.990 -10.877  0.00  0.00    +0.031 C 
ATOM      2  C   UNL     1       1.287   5.435  -9.860  0.00  0.00    -0.019 A 
ATOM      3  C   UNL     1       2.484   5.866 -10.353  0.00  0.00    +0.033 A 
ATOM      4  C   UNL     1       3.335   6.740  -9.685  0.00  0.00    +0.138 A 
ATOM      5  C   UNL     1       2.901   7.143  -8.431  0.00  0.00    +0.033 A 
ATOM      6  C   UNL     1       1.799   6.559  -7.819  0.00  0.00    -0.019 A 
ATOM      7  C   UNL     1       1.323   6.998  -6.471  0.00  0.00    +0.031 C 
ATOM      8  C   UNL     1       0.925   5.809  -8.581  0.00  0.00    -0.008 A 
ENDROOT
BRANCH   4   9
ATOM      9  O   UNL     1       4.663   6.624 -10.038  0.00  0.00    -0.472 OA
BRANCH   9  10
ATOM     10  C   UNL     1       5.224   6.916 -11.280  0.00  0.00    +0.251 C 
BRANCH  10  11
ATOM     11  C   UNL     1       6.766   7.427 -10.936  0.00  0.00    +0.235 C 
ATOM     12  O   UNL     1       7.324   6.764 -12.218  0.00  0.00    -0.432 OA
ATOM     13  C   UNL     1       7.349   5.429 -12.006  0.00  0.00    +0.421 C 
ATOM     14  O   UNL     1       7.660   4.605 -12.919  0.00  0.00    -0.225 OA
ATOM     15  N   UNL     1       8.012   5.397 -10.731  0.00  0.00    -0.165 NA
ATOM     16  C   UNL     1       7.042   6.116  -9.961  0.00  0.00    +0.166 C 
ENDBRANCH  10  11
ENDBRANCH   9  10
ENDBRANCH   4   9
TORSDOF 3
ENDMDL
MODEL 4
REMARK VINA RESULT:      -6.1      6.118      8.883
REMARK  Name = 
REMARK  3 active torsions:
REMARK  status: ('A' for Active; 'I' for Inactive)
REMARK    1  A    between atoms: C_7  and  O_8
REMARK    2  A    between atoms: O_8  and  C_9
REMARK    3  A    between atoms: C_9  and  C_10
REMARK                            x       y       z     vdW  Elec       q    Type
REMARK                         _______ _______ _______ _____ _____    ______ ____
ROOT
ATOM      1  C   UNL     1       3.936   7.040  -5.260  0.00  0.00    +0.031 C 
ATOM      2  C   UNL     1       3.233   6.584  -6.503  0.00  0.00    -0.019 A 
ATOM      3  C   UNL     1       4.001   5.914  -7.411  0.00  0.00    +0.033 A 
ATOM      4  C   UNL     1       3.500   5.015  -8.347  0.00  0.00    +0.138 A 
ATOM      5  C   UNL     1       2.123   4.851  -8.328  0.00  0.00    +0.033 A 
ATOM      6  C   UNL     1       1.301   5.671  -7.565  0.00  0.00    -0.019 A 
ATOM      7  C   UNL     1      -0.183   5.490  -7.535  0.00  0.00    +0.031 C 
ATOM      8  C   UNL     1       1.862   6.440  -6.563  0.00  0.00    -0.008 A 
ENDROOT
BRANCH   4   9
ATOM      9  O   UNL     1       4.275   4.880  -9.479  0.00  0.00    -0.472 OA
BRANCH   9  10
ATOM     10  C   UNL     1       5.400   5.631  -9.813  0.00  0.00    +0.251 C 
BRANCH  10  11
ATOM     11  C   UNL     1       4.986   6.409 -11.221  0.00  0.00    +0.235 C 
ATOM     12  O   UNL     1       5.608   5.285 -12.083  0.00  0.00    -0.432 OA
ATOM     13  C   UNL     1       6.951   5.410 -12.004  0.00  0.00    +0.421 C 
ATOM     14  O   UNL     1       7.742   4.564 -12.522  0.00  0.00    -0.225 OA
ATOM     15  N   UNL     1       7.084   6.812 -12.294  0.00  0.00    -0.165 NA
ATOM     16  C   UNL     1       6.358   7.336 -11.177  0.00  0.00    +0.166 C 
ENDBRANCH  10  11
ENDBRANCH   9  10
ENDBRANCH   4   9
TORSDOF 3
ENDMDL
MODEL 5
REMARK VINA RESULT:      -6.1      6.423      9.118
REMARK  Name = 
REMARK  3 active torsions:
REMARK  status: ('A' for Active; 'I' for Inactive)
REMARK    1  A    between atoms: C_7  and  O_8
REMARK    2  A    between atoms: O_8  and  C_9
REMARK    3  A    between atoms: C_9  and  C_10
REMARK                            x       y       z     vdW  Elec       q    Type
REMARK                         _______ _______ _______ _____ _____    ______ ____
ROOT
ATOM      1  C   UNL     1       1.852   6.645  -6.235  0.00  0.00    +0.031 C 
ATOM      2  C   UNL     1       1.899   6.650  -7.732  0.00  0.00    -0.019 A 
ATOM      3  C   UNL     1       3.127   6.857  -8.290  0.00  0.00    +0.033 A 
ATOM      4  C   UNL     1       3.488   6.433  -9.565  0.00  0.00    +0.138 A 
ATOM      5  C   UNL     1       2.488   5.791 -10.278  0.00  0.00    +0.033 A 
ATOM      6  C   UNL     1       1.176   5.755  -9.823  0.00  0.00    -0.019 A 
ATOM      7  C   UNL     1       0.096   5.055 -10.585  0.00  0.00    +0.031 C 
ATOM      8  C   UNL     1       0.914   6.064  -8.502  0.00  0.00    -0.008 A 
ENDROOT
BRANCH   4   9
ATOM      9  O   UNL     1       4.493   7.175 -10.149  0.00  0.00    -0.472 OA
BRANCH   9  10
ATOM     10  C   UNL     1       5.199   6.855 -11.307  0.00  0.00    +0.251 C 
BRANCH  10  11
ATOM     11  C   UNL     1       6.717   7.484 -11.061  0.00  0.00    +0.235 C 
ATOM     12  O   UNL     1       7.268   6.774 -12.321  0.00  0.00    -0.432 OA
ATOM     13  C   UNL     1       7.388   5.460 -12.027  0.00  0.00    +0.421 C 
ATOM     14  O   UNL     1       7.716   4.599 -12.898  0.00  0.00    -0.225 OA
ATOM     15  N   UNL     1       8.100   5.553 -10.781  0.00  0.00    -0.165 NA
ATOM     16  C   UNL     1       7.115   6.259 -10.018  0.00  0.00    +0.166 C 
ENDBRANCH  10  11
ENDBRANCH   9  10
ENDBRANCH   4   9
TORSDOF 3
ENDMDL
MODEL 6
REMARK VINA RESULT:      -6.1      2.525      3.726
REMARK  Name = 
REMARK  3 active torsions:
REMARK  status: ('A' for Active; 'I' for Inactive)
REMARK    1  A    between atoms: C_7  and  O_8
REMARK    2  A    between atoms: O_8  and  C_9
REMARK    3  A    between atoms: C_9  and  C_10
REMARK                            x       y       z     vdW  Elec       q    Type
REMARK                         _______ _______ _______ _____ _____    ______ ____
ROOT
ATOM      1  C   UNL     1      -3.611   6.228  -2.843  0.00  0.00    +0.031 C 
ATOM      2  C   UNL     1      -2.350   6.296  -3.650  0.00  0.00    -0.019 A 
ATOM      3  C   UNL     1      -1.185   6.223  -2.944  0.00  0.00    +0.033 A 
ATOM      4  C   UNL     1       0.025   5.789  -3.475  0.00  0.00    +0.138 A 
ATOM      5  C   UNL     1      -0.009   5.449  -4.819  0.00  0.00    +0.033 A 
ATOM      6  C   UNL     1      -1.120   5.713  -5.610  0.00  0.00    -0.019 A 
ATOM      7  C   UNL     1      -1.163   5.339  -7.057  0.00  0.00    +0.031 C 
ATOM      8  C   UNL     1      -2.323   6.010  -5.000  0.00  0.00    -0.008 A 
ENDROOT
BRANCH   4   9
ATOM      9  O   UNL     1       1.140   6.290  -2.837  0.00  0.00    -0.472 OA
BRANCH   9  10
ATOM     10  C   UNL     1       2.470   5.983  -3.119  0.00  0.00    +0.251 C 
BRANCH  10  11
ATOM     11  C   UNL     1       3.351   7.108  -2.272  0.00  0.00    +0.235 C 
ATOM     12  O   UNL     1       4.464   6.078  -1.966  0.00  0.00    -0.432 OA
ATOM     13  C   UNL     1       3.989   5.234  -1.025  0.00  0.00    +0.421 C 
ATOM     14  O   UNL     1       4.636   4.212  -0.643  0.00  0.00    -0.225 OA
ATOM     15  N   UNL     1       3.492   6.187  -0.070  0.00  0.00    -0.165 NA
ATOM     16  C   UNL     1       2.495   6.814  -0.884  0.00  0.00    +0.166 C 
ENDBRANCH  10  11
ENDBRANCH   9  10
ENDBRANCH   4   9
TORSDOF 3
ENDMDL
MODEL 7
REMARK VINA RESULT:      -6.1      7.320      9.653
REMARK  Name = 
REMARK  3 active torsions:
REMARK  status: ('A' for Active; 'I' for Inactive)
REMARK    1  A    between atoms: C_7  and  O_8
REMARK    2  A    between atoms: O_8  and  C_9
REMARK    3  A    between atoms: C_9  and  C_10
REMARK                            x       y       z     vdW  Elec       q    Type
REMARK                         _______ _______ _______ _____ _____    ______ ____
ROOT
ATOM      1  C   UNL     1       4.489   5.451  -6.804  0.00  0.00    +0.031 C 
ATOM      2  C   UNL     1       4.796   5.400  -8.269  0.00  0.00    -0.019 A 
ATOM      3  C   UNL     1       3.744   5.632  -9.108  0.00  0.00    +0.033 A 
ATOM      4  C   UNL     1       3.872   6.102 -10.411  0.00  0.00    +0.138 A 
ATOM      5  C   UNL     1       5.175   6.303 -10.840  0.00  0.00    +0.033 A 
ATOM      6  C   UNL     1       6.264   5.877 -10.089  0.00  0.00    -0.019 A 
ATOM      7  C   UNL     1       7.671   6.100 -10.545  0.00  0.00    +0.031 C 
ATOM      8  C   UNL     1       6.077   5.550  -8.760  0.00  0.00    -0.008 A 
ENDROOT
BRANCH   4   9
ATOM      9  O   UNL     1       2.833   5.755 -11.247  0.00  0.00    -0.472 OA
BRANCH   9  10
ATOM     10  C   UNL     1       2.761   5.971 -12.621  0.00  0.00    +0.251 C 
BRANCH  10  11
ATOM     11  C   UNL     1       1.203   6.484 -12.886  0.00  0.00    +0.235 C 
ATOM     12  O   UNL     1       0.683   5.029 -12.953  0.00  0.00    -0.432 OA
ATOM     13  C   UNL     1       1.080   4.510 -14.136  0.00  0.00    +0.421 C 
ATOM     14  O   UNL     1       0.894   3.292 -14.438  0.00  0.00    -0.225 OA
ATOM     15  N   UNL     1       0.648   5.559 -15.020  0.00  0.00    -0.165 NA
ATOM     16  C   UNL     1       1.467   6.620 -14.517  0.00  0.00    +0.166 C 
ENDBRANCH  10  11
ENDBRANCH   9  10
ENDBRANCH   4   9
TORSDOF 3
ENDMDL
MODEL 8
REMARK VINA RESULT:      -6.0      3.032      4.466
REMARK  Name = 
REMARK  3 active torsions:
REMARK  status: ('A' for Active; 'I' for Inactive)
REMARK    1  A    between atoms: C_7  and  O_8
REMARK    2  A    between atoms: O_8  and  C_9
REMARK    3  A    between atoms: C_9  and  C_10
REMARK                            x       y       z     vdW  Elec       q    Type
REMARK                         _______ _______ _______ _____ _____    ______ ____
ROOT
ATOM      1  C   UNL     1      -3.440   5.725  -3.056  0.00  0.00    +0.031 C 
ATOM      2  C   UNL     1      -2.173   5.932  -3.829  0.00  0.00    -0.019 A 
ATOM      3  C   UNL     1      -1.016   5.857  -3.110  0.00  0.00    +0.033 A 
ATOM      4  C   UNL     1       0.224   5.536  -3.654  0.00  0.00    +0.138 A 
ATOM      5  C   UNL     1       0.228   5.318  -5.024  0.00  0.00    +0.033 A 
ATOM      6  C   UNL     1      -0.885   5.594  -5.809  0.00  0.00    -0.019 A 
ATOM      7  C   UNL     1      -0.887   5.351  -7.285  0.00  0.00    +0.031 C 
ATOM      8  C   UNL     1      -2.111   5.772  -5.199  0.00  0.00    -0.008 A 
ENDROOT
BRANCH   4   9
ATOM      9  O   UNL     1       1.300   6.035  -2.953  0.00  0.00    -0.472 OA
BRANCH   9  10
ATOM     10  C   UNL     1       2.648   5.866  -3.264  0.00  0.00    +0.251 C 
BRANCH  10  11
ATOM     11  C   UNL     1       3.222   7.406  -3.504  0.00  0.00    +0.235 C 
ATOM     12  O   UNL     1       3.308   7.188  -5.033  0.00  0.00    -0.432 OA
ATOM     13  C   UNL     1       4.369   6.385  -5.269  0.00  0.00    +0.421 C 
ATOM     14  O   UNL     1       4.637   5.939  -6.426  0.00  0.00    -0.225 OA
ATOM     15  N   UNL     1       5.371   7.071  -4.497  0.00  0.00    -0.165 NA
ATOM     16  C   UNL     1       4.781   6.932  -3.200  0.00  0.00    +0.166 C 
ENDBRANCH  10  11
ENDBRANCH   9  10
ENDBRANCH   4   9
TORSDOF 3
ENDMDL
MODEL 9
REMARK VINA RESULT:      -6.0      2.434      3.743
REMARK  Name = 
REMARK  3 active torsions:
REMARK  status: ('A' for Active; 'I' for Inactive)
REMARK    1  A    between atoms: C_7  and  O_8
REMARK    2  A    between atoms: O_8  and  C_9
REMARK    3  A    between atoms: C_9  and  C_10
REMARK                            x       y       z     vdW  Elec       q    Type
REMARK                         _______ _______ _______ _____ _____    ______ ____
ROOT
ATOM      1  C   UNL     1       5.137   6.959  -4.277  0.00  0.00    +0.031 C 
ATOM      2  C   UNL     1       4.319   6.083  -5.176  0.00  0.00    -0.019 A 
ATOM      3  C   UNL     1       2.993   5.987  -4.871  0.00  0.00    +0.033 A 
ATOM      4  C   UNL     1       2.001   5.659  -5.790  0.00  0.00    +0.138 A 
ATOM      5  C   UNL     1       2.451   5.396  -7.075  0.00  0.00    +0.033 A 
ATOM      6  C   UNL     1       3.805   5.278  -7.363  0.00  0.00    -0.019 A 
ATOM      7  C   UNL     1       4.295   5.003  -8.749  0.00  0.00    +0.031 C 
ATOM      8  C   UNL     1       4.730   5.748  -6.451  0.00  0.00    -0.008 A 
ENDROOT
BRANCH   4   9
ATOM      9  O   UNL     1       0.879   5.082  -5.236  0.00  0.00    -0.472 OA
BRANCH   9  10
ATOM     10  C   UNL     1      -0.445   5.459  -5.451  0.00  0.00    +0.251 C 
BRANCH  10  11
ATOM     11  C   UNL     1      -0.657   6.812  -4.511  0.00  0.00    +0.235 C 
ATOM     12  O   UNL     1      -0.988   5.955  -3.266  0.00  0.00    -0.432 OA
ATOM     13  C   UNL     1      -2.233   5.457  -3.436  0.00  0.00    +0.421 C 
ATOM     14  O   UNL     1      -2.746   4.625  -2.627  0.00  0.00    -0.225 OA
ATOM     15  N   UNL     1      -2.932   6.662  -3.791  0.00  0.00    -0.165 NA
ATOM     16  C   UNL     1      -2.232   6.973  -5.001  0.00  0.00    +0.166 C 
ENDBRANCH  10  11
ENDBRANCH   9  10
ENDBRANCH   4   9
TORSDOF 3
ENDMDL
