MODEL 1
REMARK VINA RESULT:      -5.3      0.000      0.000
REMARK  Name = 
REMARK  3 active torsions:
REMARK  status: ('A' for Active; 'I' for Inactive)
REMARK    1  A    between atoms: C_2  and  C_3
REMARK    2  A    between atoms: C_3  and  C_4
REMARK    3  A    between atoms: C_3  and  N_7
REMARK                            x       y       z     vdW  Elec       q    Type
REMARK                         _______ _______ _______ _____ _____    ______ ____
ROOT
ATOM      1  C   UNL     1       6.223   6.563 -11.954  0.00  0.00    +0.155 C 
ENDROOT
BRANCH   1   2
ATOM      2  N   UNL     1       5.699   6.040 -10.567  0.00  0.00    -0.273 N 
ATOM      3  C   UNL     1       4.409   5.442 -10.487  0.00  0.00    +0.226 C 
ATOM      4  O   UNL     1       3.468   5.454 -11.331  0.00  0.00    -0.275 OA
ATOM      5  C   UNL     1       4.205   5.124  -9.059  0.00  0.00    +0.087 C 
ATOM      6  C   UNL     1       5.611   4.959  -8.567  0.00  0.00    +0.031 C 
ATOM      7  C   UNL     1       6.528   5.704  -9.465  0.00  0.00    +0.094 C 
ENDBRANCH   1   2
BRANCH   1   8
ATOM      8  C   UNL     1       7.608   5.752 -11.836  0.00  0.00    +0.279 C 
ATOM      9  O   UNL     1       8.658   6.318 -11.621  0.00  0.00    -0.270 OA
ATOM     10  N   UNL     1       7.583   4.589 -12.671  0.00  0.00    -0.086 NA
ENDBRANCH   1   8
BRANCH   1  12
ATOM     11  C   UNL     1       6.449   8.495 -11.373  0.00  0.00    +0.002 C 
ATOM     12  C   UNL     1       6.801   7.965 -11.309  0.00  0.00    +0.029 C 
ENDBRANCH   1  12
TORSDOF 3
ENDMDL
MODEL 2
REMARK VINA RESULT:      -5.1      8.462     10.620
REMARK  Name = 
REMARK  3 active torsions:
REMARK  status: ('A' for Active; 'I' for Inactive)
REMARK    1  A    between atoms: C_2  and  C_3
REMARK    2  A    between atoms: C_3  and  C_4
REMARK    3  A    between atoms: C_3  and  N_7
REMARK                            x       y       z     vdW  Elec       q    Type
REMARK                         _______ _______ _______ _____ _____    ______ ____
ROOT
ATOM      1  C   UNL     1      -1.438   6.863  -3.449  0.00  0.00    +0.155 C 
ENDROOT
BRANCH   1   2
ATOM      2  N   UNL     1      -1.161   6.197  -4.845  0.00  0.00    -0.273 N 
ATOM      3  C   UNL     1      -0.020   5.361  -5.007  0.00  0.00    +0.226 C 
ATOM      4  O   UNL     1       0.986   5.225  -4.253  0.00  0.00    -0.275 OA
ATOM      5  C   UNL     1      -0.021   4.957  -6.428  0.00  0.00    +0.087 C 
ATOM      6  C   UNL     1      -1.475   5.044  -6.782  0.00  0.00    +0.031 C 
ATOM      7  C   UNL     1      -2.143   5.985  -5.847  0.00  0.00    +0.094 C 
ENDBRANCH   1   2
BRANCH   1   8
ATOM      8  C   UNL     1      -2.768   5.992  -3.198  0.00  0.00    +0.279 C 
ATOM      9  O   UNL     1      -3.841   6.517  -2.994  0.00  0.00    -0.270 OA
ATOM     10  N   UNL     1      -2.446   4.755  -2.552  0.00  0.00    -0.086 NA
ENDBRANCH   1   8
BRANCH   1  12
ATOM     11  C   UNL     1      -1.882   8.693  -4.209  0.00  0.00    +0.002 C 
ATOM     12  C   UNL     1      -2.214   8.155  -4.116  0.00  0.00    +0.029 C 
ENDBRANCH   1  12
TORSDOF 3
ENDMDL
MODEL 3
REMARK VINA RESULT:      -4.9      7.676      9.509
REMARK  Name = 
REMARK  3 active torsions:
REMARK  status: ('A' for Active; 'I' for Inactive)
REMARK    1  A    between atoms: C_2  and  C_3
REMARK    2  A    between atoms: C_3  and  C_4
REMARK    3  A    between atoms: C_3  and  N_7
REMARK                            x       y       z     vdW  Elec       q    Type
REMARK                         _______ _______ _______ _____ _____    ______ ____
ROOT
ATOM      1  C   UNL     1      -0.165   5.409  -5.256  0.00  0.00    +0.155 C 
ENDROOT
BRANCH   1   2
ATOM      2  N   UNL     1      -1.156   6.359  -4.490  0.00  0.00    -0.273 N 
ATOM      3  C   UNL     1      -1.546   6.036  -3.160  0.00  0.00    +0.226 C 
ATOM      4  O   UNL     1      -1.406   4.952  -2.525  0.00  0.00    -0.275 OA
ATOM      5  C   UNL     1      -2.513   7.080  -2.764  0.00  0.00    +0.087 C 
ATOM      6  C   UNL     1      -2.098   8.239  -3.620  0.00  0.00    +0.031 C 
ATOM      7  C   UNL     1      -1.375   7.724  -4.811  0.00  0.00    +0.094 C 
ENDBRANCH   1   2
BRANCH   1   8
ATOM      8  C   UNL     1       0.893   6.590  -5.533  0.00  0.00    +0.279 C 
ATOM      9  O   UNL     1       1.248   6.873  -6.657  0.00  0.00    -0.270 OA
ATOM     10  N   UNL     1       1.815   6.706  -4.443  0.00  0.00    -0.086 NA
ENDBRANCH   1   8
BRANCH   1  12
ATOM     11  C   UNL     1      -1.380   5.114  -6.855  0.00  0.00    +0.002 C 
ATOM     12  C   UNL     1      -0.968   5.572  -6.685  0.00  0.00    +0.029 C 
ENDBRANCH   1  12
TORSDOF 3
ENDMDL
MODEL 4
REMARK VINA RESULT:      -4.8      4.969      7.350
REMARK  Name = 
REMARK  3 active torsions:
REMARK  status: ('A' for Active; 'I' for Inactive)
REMARK    1  A    between atoms: C_2  and  C_3
REMARK    2  A    between atoms: C_3  and  C_4
REMARK    3  A    between atoms: C_3  and  N_7
REMARK                            x       y       z     vdW  Elec       q    Type
REMARK                         _______ _______ _______ _____ _____    ______ ____
ROOT
ATOM      1  C   UNL     1       0.489   6.574  -6.144  0.00  0.00    +0.155 C 
ENDROOT
BRANCH   1   2
ATOM      2  N   UNL     1       1.693   6.192  -7.079  0.00  0.00    -0.273 N 
ATOM      3  C   UNL     1       2.419   7.223  -7.742  0.00  0.00    +0.226 C 
ATOM      4  O   UNL     1       2.117   8.441  -7.897  0.00  0.00    -0.275 OA
ATOM      5  C   UNL     1       3.424   6.531  -8.574  0.00  0.00    +0.087 C 
ATOM      6  C   UNL     1       3.623   5.246  -7.829  0.00  0.00    +0.031 C 
ATOM      7  C   UNL     1       2.415   4.972  -7.008  0.00  0.00    +0.094 C 
ENDBRANCH   1   2
BRANCH   1   8
ATOM      8  C   UNL     1       1.151   5.871  -4.856  0.00  0.00    +0.279 C 
ATOM      9  O   UNL     1       0.571   5.004  -4.239  0.00  0.00    -0.270 OA
ATOM     10  N   UNL     1       2.005   6.789  -4.164  0.00  0.00    -0.086 NA
ENDBRANCH   1   8
BRANCH   1  12
ATOM     11  C   UNL     1      -0.921   5.363  -6.962  0.00  0.00    +0.002 C 
ATOM     12  C   UNL     1      -0.401   5.266  -6.604  0.00  0.00    +0.029 C 
ENDBRANCH   1  12
TORSDOF 3
ENDMDL
MODEL 5
REMARK VINA RESULT:      -4.6      5.416      7.108
REMARK  Name = 
REMARK  3 active torsions:
REMARK  status: ('A' for Active; 'I' for Inactive)
REMARK    1  A    between atoms: C_2  and  C_3
REMARK    2  A    between atoms: C_3  and  C_4
REMARK    3  A    between atoms: C_3  and  N_7
REMARK                            x       y       z     vdW  Elec       q    Type
REMARK                         _______ _______ _______ _____ _____    ______ ____
ROOT
ATOM      1  C   UNL     1       2.218   6.705  -5.819  0.00  0.00    +0.155 C 
ENDROOT
BRANCH   1   2
ATOM      2  N   UNL     1       0.816   6.086  -6.169  0.00  0.00    -0.273 N 
ATOM      3  C   UNL     1      -0.356   6.625  -5.566  0.00  0.00    +0.226 C 
ATOM      4  O   UNL     1      -0.461   7.408  -4.580  0.00  0.00    -0.275 OA
ATOM      5  C   UNL     1      -1.474   5.790  -6.052  0.00  0.00    +0.087 C 
ATOM      6  C   UNL     1      -0.950   5.291  -7.365  0.00  0.00    +0.031 C 
ATOM      7  C   UNL     1       0.535   5.335  -7.340  0.00  0.00    +0.094 C 
ENDBRANCH   1   2
BRANCH   1   8
ATOM      8  C   UNL     1       2.603   6.930  -7.366  0.00  0.00    +0.279 C 
ATOM      9  O   UNL     1       3.606   6.447  -7.846  0.00  0.00    -0.270 OA
ATOM     10  N   UNL     1       2.139   8.206  -7.820  0.00  0.00    -0.086 NA
ENDBRANCH   1   8
BRANCH   1  12
ATOM     11  C   UNL     1       3.083   5.014  -5.102  0.00  0.00    +0.002 C 
ATOM     12  C   UNL     1       2.938   5.229  -5.685  0.00  0.00    +0.029 C 
ENDBRANCH   1  12
TORSDOF 3
ENDMDL
MODEL 6
REMARK VINA RESULT:      -4.6      4.302      6.201
REMARK  Name = 
REMARK  3 active torsions:
REMARK  status: ('A' for Active; 'I' for Inactive)
REMARK    1  A    between atoms: C_2  and  C_3
REMARK    2  A    between atoms: C_3  and  C_4
REMARK    3  A    between atoms: C_3  and  N_7
REMARK                            x       y       z     vdW  Elec       q    Type
REMARK                         _______ _______ _______ _____ _____    ______ ____
ROOT
ATOM      1  C   UNL     1       2.458   5.912  -5.834  0.00  0.00    +0.155 C 
ENDROOT
BRANCH   1   2
ATOM      2  N   UNL     1       3.022   5.996  -7.299  0.00  0.00    -0.273 N 
ATOM      3  C   UNL     1       2.864   7.201  -8.041  0.00  0.00    +0.226 C 
ATOM      4  O   UNL     1       2.119   8.195  -7.804  0.00  0.00    -0.275 OA
ATOM      5  C   UNL     1       3.439   6.927  -9.374  0.00  0.00    +0.087 C 
ATOM      6  C   UNL     1       4.441   5.854  -9.072  0.00  0.00    +0.031 C 
ATOM      7  C   UNL     1       4.046   5.162  -7.819  0.00  0.00    +0.094 C 
ENDBRANCH   1   2
BRANCH   1   8
ATOM      8  C   UNL     1       3.899   5.570  -5.205  0.00  0.00    +0.279 C 
ATOM      9  O   UNL     1       4.075   4.585  -4.520  0.00  0.00    -0.270 OA
ATOM     10  N   UNL     1       4.624   6.772  -4.923  0.00  0.00    -0.086 NA
ENDBRANCH   1   8
BRANCH   1  12
ATOM     11  C   UNL     1       1.356   4.219  -6.044  0.00  0.00    +0.002 C 
ATOM     12  C   UNL     1       1.981   4.344  -6.010  0.00  0.00    +0.029 C 
ENDBRANCH   1  12
TORSDOF 3
ENDMDL
MODEL 7
REMARK VINA RESULT:      -4.5      4.151      6.155
REMARK  Name = 
REMARK  3 active torsions:
REMARK  status: ('A' for Active; 'I' for Inactive)
REMARK    1  A    between atoms: C_2  and  C_3
REMARK    2  A    between atoms: C_3  and  C_4
REMARK    3  A    between atoms: C_3  and  N_7
REMARK                            x       y       z     vdW  Elec       q    Type
REMARK                         _______ _______ _______ _____ _____    ______ ____
ROOT
ATOM      1  C   UNL     1       4.254   5.469  -5.728  0.00  0.00    +0.155 C 
ENDROOT
BRANCH   1   2
ATOM      2  N   UNL     1       3.747   6.269  -6.982  0.00  0.00    -0.273 N 
ATOM      3  C   UNL     1       4.073   5.804  -8.287  0.00  0.00    +0.226 C 
ATOM      4  O   UNL     1       4.928   4.941  -8.638  0.00  0.00    -0.275 OA
ATOM      5  C   UNL     1       3.507   6.801  -9.219  0.00  0.00    +0.087 C 
ATOM      6  C   UNL     1       2.372   7.370  -8.423  0.00  0.00    +0.031 C 
ATOM      7  C   UNL     1       2.643   7.162  -6.978  0.00  0.00    +0.094 C 
ENDBRANCH   1   2
BRANCH   1   8
ATOM      8  C   UNL     1       2.763   5.086  -5.259  0.00  0.00    +0.279 C 
ATOM      9  O   UNL     1       2.388   5.272  -4.121  0.00  0.00    -0.270 OA
ATOM     10  N   UNL     1       2.279   3.956  -5.993  0.00  0.00    -0.086 NA
ENDBRANCH   1   8
BRANCH   1  12
ATOM     11  C   UNL     1       4.956   7.031  -4.637  0.00  0.00    +0.002 C 
ATOM     12  C   UNL     1       4.374   6.824  -4.797  0.00  0.00    +0.029 C 
ENDBRANCH   1  12
TORSDOF 3
ENDMDL
MODEL 8
REMARK VINA RESULT:      -4.4      2.985      4.152
REMARK  Name = 
REMARK  3 active torsions:
REMARK  status: ('A' for Active; 'I' for Inactive)
REMARK    1  A    between atoms: C_2  and  C_3
REMARK    2  A    between atoms: C_3  and  C_4
REMARK    3  A    between atoms: C_3  and  N_7
REMARK                            x       y       z     vdW  Elec       q    Type
REMARK                         _______ _______ _______ _____ _____    ______ ____
ROOT
ATOM      1  C   UNL     1       4.163   6.519  -9.620  0.00  0.00    +0.155 C 
ENDROOT
BRANCH   1   2
ATOM      2  N   UNL     1       2.827   6.080  -8.917  0.00  0.00    -0.273 N 
ATOM      3  C   UNL     1       2.017   7.061  -8.278  0.00  0.00    +0.226 C 
ATOM      4  O   UNL     1       2.300   8.252  -7.966  0.00  0.00    -0.275 OA
ATOM      5  C   UNL     1       0.891   6.318  -7.676  0.00  0.00    +0.087 C 
ATOM      6  C   UNL     1       0.799   5.110  -8.559  0.00  0.00    +0.031 C 
ATOM      7  C   UNL     1       2.116   4.887  -9.210  0.00  0.00    +0.094 C 
ENDBRANCH   1   2
BRANCH   1   8
ATOM      8  C   UNL     1       3.800   5.752 -10.987  0.00  0.00    +0.279 C 
ATOM      9  O   UNL     1       4.619   5.076 -11.572  0.00  0.00    -0.270 OA
ATOM     10  N   UNL     1       2.818   6.483 -11.730  0.00  0.00    -0.086 NA
ENDBRANCH   1   8
BRANCH   1  12
ATOM     11  C   UNL     1       5.464   5.417  -8.518  0.00  0.00    +0.002 C 
ATOM     12  C   UNL     1       5.025   5.279  -8.961  0.00  0.00    +0.029 C 
ENDBRANCH   1  12
TORSDOF 3
ENDMDL
MODEL 9
REMARK VINA RESULT:      -4.4      3.193      5.419
REMARK  Name = 
REMARK  3 active torsions:
REMARK  status: ('A' for Active; 'I' for Inactive)
REMARK    1  A    between atoms: C_2  and  C_3
REMARK    2  A    between atoms: C_3  and  C_4
REMARK    3  A    between atoms: C_3  and  N_7
REMARK                            x       y       z     vdW  Elec       q    Type
REMARK                         _______ _______ _______ _____ _____    ______ ____
ROOT
ATOM      1  C   UNL     1       1.378   6.683  -9.682  0.00  0.00    +0.155 C 
ENDROOT
BRANCH   1   2
ATOM      2  N   UNL     1       2.786   6.028  -9.923  0.00  0.00    -0.273 N 
ATOM      3  C   UNL     1       3.380   6.102 -11.215  0.00  0.00    +0.226 C 
ATOM      4  O   UNL     1       2.856   6.423 -12.319  0.00  0.00    -0.275 OA
ATOM      5  C   UNL     1       4.646   5.347 -11.115  0.00  0.00    +0.087 C 
ATOM      6  C   UNL     1       4.978   5.476  -9.659  0.00  0.00    +0.031 C 
ATOM      7  C   UNL     1       3.730   5.744  -8.901  0.00  0.00    +0.094 C 
ENDBRANCH   1   2
BRANCH   1   8
ATOM      8  C   UNL     1       1.649   6.900  -8.111  0.00  0.00    +0.279 C 
ATOM      9  O   UNL     1       0.998   6.320  -7.269  0.00  0.00    -0.270 OA
ATOM     10  N   UNL     1       2.116   8.230  -7.859  0.00  0.00    -0.086 NA
ENDBRANCH   1   8
BRANCH   1  12
ATOM     11  C   UNL     1       0.233   5.033  -9.983  0.00  0.00    +0.002 C 
ATOM     12  C   UNL     1       0.627   5.225  -9.518  0.00  0.00    +0.029 C 
ENDBRANCH   1  12
TORSDOF 3
ENDMDL
