MODEL 1
REMARK VINA RESULT:      -8.1      0.000      0.000
REMARK  Name = 
REMARK  2 active torsions:
REMARK  status: ('A' for Active; 'I' for Inactive)
REMARK    1  A    between atoms: C_6  and  C_7
REMARK    2  A    between atoms: C_7  and  N_8
REMARK                            x       y       z     vdW  Elec       q    Type
REMARK                         _______ _______ _______ _____ _____    ______ ____
ROOT
ATOM      1  N   UNL     1       2.600   5.681  -8.443  0.00  0.00    -0.270 N 
ATOM      2  C   UNL     1       4.004   5.679  -8.734  0.00  0.00    +0.250 C 
ATOM      3  O   UNL     1       4.768   5.014  -7.973  0.00  0.00    -0.270 OA
ATOM      4  C   UNL     1       4.471   6.089 -10.066  0.00  0.00    +0.067 A 
ATOM      5  C   UNL     1       5.742   6.085 -10.628  0.00  0.00    +0.021 A 
ATOM      6  C   UNL     1       5.638   5.955 -12.005  0.00  0.00    +0.060 A 
ATOM      7  N   UNL     1       4.318   6.064 -12.302  0.00  0.00    -0.328 N 
ATOM      8  C   UNL     1       3.763   5.559 -13.555  0.00  0.00    +0.130 C 
ATOM      9  C   UNL     1       6.746   5.540 -12.724  0.00  0.00    +0.017 A 
ATOM     10  C   UNL     1       7.876   5.145 -12.018  0.00  0.00    +0.001 A 
ATOM     11  C   UNL     1       8.069   5.761 -10.789  0.00  0.00    +0.000 A 
ATOM     12  C   UNL     1       6.988   6.161 -10.017  0.00  0.00    +0.002 A 
ATOM     13  C   UNL     1       3.609   5.979 -11.151  0.00  0.00    +0.043 A 
ATOM     14  C   UNL     1       2.210   5.563 -10.824  0.00  0.00    +0.065 C 
ATOM     15  C   UNL     1       1.754   6.179  -9.525  0.00  0.00    +0.100 C 
ENDROOT
BRANCH   1  16
ATOM     16  C   UNL     1       2.089   4.603  -7.599  0.00  0.00    +0.141 C 
BRANCH  16  19
ATOM     17  C   UNL     1      -0.972   5.297  -7.061  0.00  0.00    +0.053 C 
ATOM     18  C   UNL     1       0.186   5.710  -6.228  0.00  0.00    +0.076 A 
ATOM     19  C   UNL     1       1.445   5.138  -6.364  0.00  0.00    +0.094 A 
ATOM     20  N   UNL     1       2.148   5.636  -5.316  0.00  0.00    -0.225 NA
ATOM     21  C   UNL     1       1.458   6.686  -4.811  0.00  0.00    +0.198 A 
ATOM     22  N   UNL     1       0.270   6.810  -5.441  0.00  0.00    -0.227 NA
ENDBRANCH  16  19
ENDBRANCH   1  16
TORSDOF 2
ENDMDL
MODEL 2
REMARK VINA RESULT:      -7.6      2.217      7.884
REMARK  Name = 
REMARK  2 active torsions:
REMARK  status: ('A' for Active; 'I' for Inactive)
REMARK    1  A    between atoms: C_6  and  C_7
REMARK    2  A    between atoms: C_7  and  N_8
REMARK                            x       y       z     vdW  Elec       q    Type
REMARK                         _______ _______ _______ _____ _____    ______ ____
ROOT
ATOM      1  N   UNL     1       2.713   5.566  -7.223  0.00  0.00    -0.270 N 
ATOM      2  C   UNL     1       1.327   5.668  -6.871  0.00  0.00    +0.250 C 
ATOM      3  O   UNL     1       0.481   5.085  -7.613  0.00  0.00    -0.270 OA
ATOM      4  C   UNL     1       0.949   6.078  -5.512  0.00  0.00    +0.067 A 
ATOM      5  C   UNL     1      -0.293   6.160  -4.895  0.00  0.00    +0.021 A 
ATOM      6  C   UNL     1      -0.143   5.988  -3.527  0.00  0.00    +0.060 A 
ATOM      7  N   UNL     1       1.192   5.984  -3.286  0.00  0.00    -0.328 N 
ATOM      8  C   UNL     1       1.757   5.405  -2.070  0.00  0.00    +0.130 C 
ATOM      9  C   UNL     1      -1.250   5.642  -2.771  0.00  0.00    +0.017 A 
ATOM     10  C   UNL     1      -2.436   5.356  -3.435  0.00  0.00    +0.001 A 
ATOM     11  C   UNL     1      -2.630   6.017  -4.640  0.00  0.00    +0.000 A 
ATOM     12  C   UNL     1      -1.554   6.351  -5.450  0.00  0.00    +0.002 A 
ATOM     13  C   UNL     1       1.845   5.873  -4.468  0.00  0.00    +0.043 A 
ATOM     14  C   UNL     1       3.191   5.356  -4.865  0.00  0.00    +0.065 C 
ATOM     15  C   UNL     1       3.640   5.968  -6.168  0.00  0.00    +0.100 C 
ENDROOT
BRANCH   1  16
ATOM     16  C   UNL     1       3.100   4.473  -8.113  0.00  0.00    +0.141 C 
BRANCH  16  19
ATOM     17  C   UNL     1       6.018   5.429  -8.962  0.00  0.00    +0.053 C 
ATOM     18  C   UNL     1       4.757   5.670  -9.709  0.00  0.00    +0.076 A 
ATOM     19  C   UNL     1       3.580   4.988  -9.429  0.00  0.00    +0.094 A 
ATOM     20  N   UNL     1       2.745   5.345 -10.435  0.00  0.00    -0.225 NA
ATOM     21  C   UNL     1       3.276   6.423 -11.059  0.00  0.00    +0.198 A 
ATOM     22  N   UNL     1       4.494   6.703 -10.546  0.00  0.00    -0.227 NA
ENDBRANCH  16  19
ENDBRANCH   1  16
TORSDOF 2
ENDMDL
MODEL 3
REMARK VINA RESULT:      -7.6      1.602      6.917
REMARK  Name = 
REMARK  2 active torsions:
REMARK  status: ('A' for Active; 'I' for Inactive)
REMARK    1  A    between atoms: C_6  and  C_7
REMARK    2  A    between atoms: C_7  and  N_8
REMARK                            x       y       z     vdW  Elec       q    Type
REMARK                         _______ _______ _______ _____ _____    ______ ____
ROOT
ATOM      1  N   UNL     1       3.393   5.100  -9.136  0.00  0.00    -0.270 N 
ATOM      2  C   UNL     1       3.723   5.111  -7.741  0.00  0.00    +0.250 C 
ATOM      3  O   UNL     1       4.771   5.725  -7.382  0.00  0.00    -0.270 OA
ATOM      4  C   UNL     1       2.692   4.779  -6.747  0.00  0.00    +0.067 A 
ATOM      5  C   UNL     1       2.721   4.809  -5.358  0.00  0.00    +0.021 A 
ATOM      6  C   UNL     1       1.438   5.021  -4.873  0.00  0.00    +0.060 A 
ATOM      7  N   UNL     1       0.607   4.938  -5.942  0.00  0.00    -0.328 N 
ATOM      8  C   UNL     1      -0.733   5.520  -5.927  0.00  0.00    +0.130 C 
ATOM      9  C   UNL     1       1.280   5.472  -3.574  0.00  0.00    +0.017 A 
ATOM     10  C   UNL     1       2.417   5.818  -2.855  0.00  0.00    +0.001 A 
ATOM     11  C   UNL     1       3.576   5.129  -3.187  0.00  0.00    +0.000 A 
ATOM     12  C   UNL     1       3.795   4.689  -4.484  0.00  0.00    +0.002 A 
ATOM     13  C   UNL     1       1.353   4.958  -7.073  0.00  0.00    +0.043 A 
ATOM     14  C   UNL     1       1.081   5.362  -8.487  0.00  0.00    +0.065 C 
ATOM     15  C   UNL     1       2.028   4.672  -9.436  0.00  0.00    +0.100 C 
ENDROOT
BRANCH   1  16
ATOM     16  C   UNL     1       4.002   6.128  -9.976  0.00  0.00    +0.141 C 
BRANCH  16  19
ATOM     17  C   UNL     1       7.172   5.867  -9.802  0.00  0.00    +0.053 C 
ATOM     18  C   UNL     1       6.336   5.684 -11.015  0.00  0.00    +0.076 A 
ATOM     19  C   UNL     1       4.956   5.534 -10.958  0.00  0.00    +0.094 A 
ATOM     20  N   UNL     1       4.607   5.202 -12.225  0.00  0.00    -0.225 NA
ATOM     21  C   UNL     1       5.656   5.480 -13.035  0.00  0.00    +0.198 A 
ATOM     22  N   UNL     1       6.717   5.882 -12.301  0.00  0.00    -0.227 NA
ENDBRANCH  16  19
ENDBRANCH   1  16
TORSDOF 2
ENDMDL
MODEL 4
REMARK VINA RESULT:      -7.5      2.515      7.799
REMARK  Name = 
REMARK  2 active torsions:
REMARK  status: ('A' for Active; 'I' for Inactive)
REMARK    1  A    between atoms: C_6  and  C_7
REMARK    2  A    between atoms: C_7  and  N_8
REMARK                            x       y       z     vdW  Elec       q    Type
REMARK                         _______ _______ _______ _____ _____    ______ ____
ROOT
ATOM      1  N   UNL     1       1.864   6.402  -8.012  0.00  0.00    -0.270 N 
ATOM      2  C   UNL     1       0.603   6.262  -7.346  0.00  0.00    +0.250 C 
ATOM      3  O   UNL     1      -0.286   5.547  -7.899  0.00  0.00    -0.270 OA
ATOM      4  C   UNL     1       0.493   6.593  -5.918  0.00  0.00    +0.067 A 
ATOM      5  C   UNL     1      -0.565   6.456  -5.028  0.00  0.00    +0.021 A 
ATOM      6  C   UNL     1      -0.071   6.303  -3.741  0.00  0.00    +0.060 A 
ATOM      7  N   UNL     1       1.265   6.527  -3.816  0.00  0.00    -0.328 N 
ATOM      8  C   UNL     1       2.189   6.046  -2.791  0.00  0.00    +0.130 C 
ATOM      9  C   UNL     1      -0.896   5.767  -2.767  0.00  0.00    +0.017 A 
ATOM     10  C   UNL     1      -2.141   5.286  -3.152  0.00  0.00    +0.001 A 
ATOM     11  C   UNL     1      -2.720   5.911  -4.248  0.00  0.00    +0.000 A 
ATOM     12  C   UNL     1      -1.935   6.430  -5.267  0.00  0.00    +0.002 A 
ATOM     13  C   UNL     1       1.630   6.538  -5.120  0.00  0.00    +0.043 A 
ATOM     14  C   UNL     1       2.911   6.263  -5.840  0.00  0.00    +0.065 C 
ATOM     15  C   UNL     1       2.934   6.951  -7.182  0.00  0.00    +0.100 C 
ENDROOT
BRANCH   1  16
ATOM     16  C   UNL     1       2.207   5.399  -9.017  0.00  0.00    +0.141 C 
BRANCH  16  19
ATOM     17  C   UNL     1       0.201   6.534 -11.216  0.00  0.00    +0.053 C 
ATOM     18  C   UNL     1       1.646   6.250 -11.402  0.00  0.00    +0.076 A 
ATOM     19  C   UNL     1       2.509   6.030 -10.335  0.00  0.00    +0.094 A 
ATOM     20  N   UNL     1       3.739   6.006 -10.905  0.00  0.00    -0.225 NA
ATOM     21  C   UNL     1       3.579   5.873 -12.243  0.00  0.00    +0.198 A 
ATOM     22  N   UNL     1       2.267   5.920 -12.561  0.00  0.00    -0.227 NA
ENDBRANCH  16  19
ENDBRANCH   1  16
TORSDOF 2
ENDMDL
MODEL 5
REMARK VINA RESULT:      -7.5      2.634      5.161
REMARK  Name = 
REMARK  2 active torsions:
REMARK  status: ('A' for Active; 'I' for Inactive)
REMARK    1  A    between atoms: C_6  and  C_7
REMARK    2  A    between atoms: C_7  and  N_8
REMARK                            x       y       z     vdW  Elec       q    Type
REMARK                         _______ _______ _______ _____ _____    ______ ____
ROOT
ATOM      1  N   UNL     1       2.557   5.663  -4.647  0.00  0.00    -0.270 N 
ATOM      2  C   UNL     1       1.703   5.802  -5.790  0.00  0.00    +0.250 C 
ATOM      3  O   UNL     1       0.745   6.629  -5.719  0.00  0.00    -0.270 OA
ATOM      4  C   UNL     1       2.155   5.316  -7.101  0.00  0.00    +0.067 A 
ATOM      5  C   UNL     1       1.576   5.414  -8.360  0.00  0.00    +0.021 A 
ATOM      6  C   UNL     1       2.569   5.387  -9.329  0.00  0.00    +0.060 A 
ATOM      7  N   UNL     1       3.725   5.092  -8.684  0.00  0.00    -0.328 N 
ATOM      8  C   UNL     1       5.032   5.394  -9.262  0.00  0.00    +0.130 C 
ATOM      9  C   UNL     1       2.277   5.856 -10.599  0.00  0.00    +0.017 A 
ATOM     10  C   UNL     1       1.041   6.454 -10.811  0.00  0.00    +0.001 A 
ATOM     11  C   UNL     1       0.002   5.996 -10.012  0.00  0.00    +0.000 A 
ATOM     12  C   UNL     1       0.241   5.551  -8.720  0.00  0.00    +0.002 A 
ATOM     13  C   UNL     1       3.519   5.209  -7.351  0.00  0.00    +0.043 A 
ATOM     14  C   UNL     1       4.412   5.487  -6.184  0.00  0.00    +0.065 C 
ATOM     15  C   UNL     1       3.811   4.958  -4.907  0.00  0.00    +0.100 C 
ENDROOT
BRANCH   1  16
ATOM     16  C   UNL     1       2.559   6.753  -3.675  0.00  0.00    +0.141 C 
BRANCH  16  19
ATOM     17  C   UNL     1       4.148   5.927  -1.040  0.00  0.00    +0.053 C 
ATOM     18  C   UNL     1       2.712   5.672  -1.322  0.00  0.00    +0.076 A 
ATOM     19  C   UNL     1       2.029   6.304  -2.354  0.00  0.00    +0.094 A 
ATOM     20  N   UNL     1       0.734   5.957  -2.153  0.00  0.00    -0.225 NA
ATOM     21  C   UNL     1       0.708   4.921  -1.280  0.00  0.00    +0.198 A 
ATOM     22  N   UNL     1       1.954   4.663  -0.829  0.00  0.00    -0.227 NA
ENDBRANCH  16  19
ENDBRANCH   1  16
TORSDOF 2
ENDMDL
MODEL 6
REMARK VINA RESULT:      -7.5      2.434      4.544
REMARK  Name = 
REMARK  2 active torsions:
REMARK  status: ('A' for Active; 'I' for Inactive)
REMARK    1  A    between atoms: C_6  and  C_7
REMARK    2  A    between atoms: C_7  and  N_8
REMARK                            x       y       z     vdW  Elec       q    Type
REMARK                         _______ _______ _______ _____ _____    ______ ____
ROOT
ATOM      1  N   UNL     1       1.227   5.158  -5.620  0.00  0.00    -0.270 N 
ATOM      2  C   UNL     1       0.671   5.201  -6.941  0.00  0.00    +0.250 C 
ATOM      3  O   UNL     1      -0.456   5.759  -7.094  0.00  0.00    -0.270 OA
ATOM      4  C   UNL     1       1.540   4.974  -8.104  0.00  0.00    +0.067 A 
ATOM      5  C   UNL     1       1.281   5.055  -9.467  0.00  0.00    +0.021 A 
ATOM      6  C   UNL     1       2.452   5.367 -10.143  0.00  0.00    +0.060 A 
ATOM      7  N   UNL     1       3.452   5.297  -9.229  0.00  0.00    -0.328 N 
ATOM      8  C   UNL     1       4.735   5.964  -9.433  0.00  0.00    +0.130 C 
ATOM      9  C   UNL     1       2.367   5.877 -11.427  0.00  0.00    +0.017 A 
ATOM     10  C   UNL     1       1.108   6.175 -11.934  0.00  0.00    +0.001 A 
ATOM     11  C   UNL     1       0.062   5.401 -11.452  0.00  0.00    +0.000 A 
ATOM     12  C   UNL     1       0.085   4.899 -10.159  0.00  0.00    +0.002 A 
ATOM     13  C   UNL     1       2.903   5.226  -7.992  0.00  0.00    +0.043 A 
ATOM     14  C   UNL     1       3.381   5.592  -6.623  0.00  0.00    +0.065 C 
ATOM     15  C   UNL     1       2.645   4.807  -5.567  0.00  0.00    +0.100 C 
ENDROOT
BRANCH   1  16
ATOM     16  C   UNL     1       0.708   6.112  -4.643  0.00  0.00    +0.141 C 
BRANCH  16  19
ATOM     17  C   UNL     1      -2.359   5.534  -4.005  0.00  0.00    +0.053 C 
ATOM     18  C   UNL     1      -1.223   5.424  -3.055  0.00  0.00    +0.076 A 
ATOM     19  C   UNL     1       0.102   5.415  -3.471  0.00  0.00    +0.094 A 
ATOM     20  N   UNL     1       0.798   5.108  -2.349  0.00  0.00    -0.225 NA
ATOM     21  C   UNL     1      -0.026   5.270  -1.287  0.00  0.00    +0.198 A 
ATOM     22  N   UNL     1      -1.273   5.570  -1.708  0.00  0.00    -0.227 NA
ENDBRANCH  16  19
ENDBRANCH   1  16
TORSDOF 2
ENDMDL
MODEL 7
REMARK VINA RESULT:      -7.3      2.399      4.485
REMARK  Name = 
REMARK  2 active torsions:
REMARK  status: ('A' for Active; 'I' for Inactive)
REMARK    1  A    between atoms: C_6  and  C_7
REMARK    2  A    between atoms: C_7  and  N_8
REMARK                            x       y       z     vdW  Elec       q    Type
REMARK                         _______ _______ _______ _____ _____    ______ ____
ROOT
ATOM      1  N   UNL     1       3.332   5.798  -7.766  0.00  0.00    -0.270 N 
ATOM      2  C   UNL     1       2.222   6.287  -8.530  0.00  0.00    +0.250 C 
ATOM      3  O   UNL     1       1.578   7.279  -8.075  0.00  0.00    -0.270 OA
ATOM      4  C   UNL     1       2.095   5.919  -9.947  0.00  0.00    +0.067 A 
ATOM      5  C   UNL     1       1.188   6.326 -10.918  0.00  0.00    +0.021 A 
ATOM      6  C   UNL     1       1.779   6.234 -12.170  0.00  0.00    +0.060 A 
ATOM      7  N   UNL     1       2.967   5.605 -11.987  0.00  0.00    -0.328 N 
ATOM      8  C   UNL     1       4.053   5.705 -12.959  0.00  0.00    +0.130 C 
ATOM      9  C   UNL     1       1.226   6.940 -13.225  0.00  0.00    +0.017 A 
ATOM     10  C   UNL     1       0.179   7.813 -12.953  0.00  0.00    +0.001 A 
ATOM     11  C   UNL     1      -0.631   7.473 -11.879  0.00  0.00    +0.000 A 
ATOM     12  C   UNL     1      -0.112   6.798 -10.783  0.00  0.00    +0.002 A 
ATOM     13  C   UNL     1       3.234   5.562 -10.660  0.00  0.00    +0.043 A 
ATOM     14  C   UNL     1       4.492   5.463  -9.858  0.00  0.00    +0.065 C 
ATOM     15  C   UNL     1       4.217   4.889  -8.491  0.00  0.00    +0.100 C 
ENDROOT
BRANCH   1  16
ATOM     16  C   UNL     1       3.919   6.703  -6.781  0.00  0.00    +0.141 C 
BRANCH  16  19
ATOM     17  C   UNL     1       5.179   7.779  -4.060  0.00  0.00    +0.053 C 
ATOM     18  C   UNL     1       4.546   6.454  -4.277  0.00  0.00    +0.076 A 
ATOM     19  C   UNL     1       3.774   6.167  -5.396  0.00  0.00    +0.094 A 
ATOM     20  N   UNL     1       3.234   4.954  -5.122  0.00  0.00    -0.225 NA
ATOM     21  C   UNL     1       3.914   4.418  -4.081  0.00  0.00    +0.198 A 
ATOM     22  N   UNL     1       4.813   5.307  -3.605  0.00  0.00    -0.227 NA
ENDBRANCH  16  19
ENDBRANCH   1  16
TORSDOF 2
ENDMDL
MODEL 8
REMARK VINA RESULT:      -7.3      2.539      7.465
REMARK  Name = 
REMARK  2 active torsions:
REMARK  status: ('A' for Active; 'I' for Inactive)
REMARK    1  A    between atoms: C_6  and  C_7
REMARK    2  A    between atoms: C_7  and  N_8
REMARK                            x       y       z     vdW  Elec       q    Type
REMARK                         _______ _______ _______ _____ _____    ______ ____
ROOT
ATOM      1  N   UNL     1       1.841   5.845  -7.330  0.00  0.00    -0.270 N 
ATOM      2  C   UNL     1       1.278   5.456  -6.070  0.00  0.00    +0.250 C 
ATOM      3  O   UNL     1       0.789   4.291  -5.971  0.00  0.00    -0.270 OA
ATOM      4  C   UNL     1       1.614   6.215  -4.857  0.00  0.00    +0.067 A 
ATOM      5  C   UNL     1       1.290   5.995  -3.524  0.00  0.00    +0.021 A 
ATOM      6  C   UNL     1       2.270   6.547  -2.713  0.00  0.00    +0.060 A 
ATOM      7  N   UNL     1       3.089   7.255  -3.530  0.00  0.00    -0.328 N 
ATOM      8  C   UNL     1       4.451   7.613  -3.139  0.00  0.00    +0.130 C 
ATOM      9  C   UNL     1       2.368   6.123  -1.398  0.00  0.00    +0.017 A 
ATOM     10  C   UNL     1       1.563   5.067  -0.987  0.00  0.00    +0.001 A 
ATOM     11  C   UNL     1       0.344   4.945  -1.640  0.00  0.00    +0.000 A 
ATOM     12  C   UNL     1       0.208   5.323  -2.968  0.00  0.00    +0.002 A 
ATOM     13  C   UNL     1       2.804   6.932  -4.814  0.00  0.00    +0.043 A 
ATOM     14  C   UNL     1       3.586   6.962  -6.089  0.00  0.00    +0.065 C 
ATOM     15  C   UNL     1       2.668   7.049  -7.282  0.00  0.00    +0.100 C 
ENDROOT
BRANCH   1  16
ATOM     16  C   UNL     1       2.217   4.777  -8.254  0.00  0.00    +0.141 C 
BRANCH  16  19
ATOM     17  C   UNL     1       3.631   5.870 -10.891  0.00  0.00    +0.053 C 
ATOM     18  C   UNL     1       2.170   5.745 -10.659  0.00  0.00    +0.076 A 
ATOM     19  C   UNL     1       1.639   5.004  -9.611  0.00  0.00    +0.094 A 
ATOM     20  N   UNL     1       0.307   4.982  -9.864  0.00  0.00    -0.225 NA
ATOM     21  C   UNL     1       0.041   5.929 -10.794  0.00  0.00    +0.198 A 
ATOM     22  N   UNL     1       1.191   6.490 -11.228  0.00  0.00    -0.227 NA
ENDBRANCH  16  19
ENDBRANCH   1  16
TORSDOF 2
ENDMDL
MODEL 9
REMARK VINA RESULT:      -7.2      1.745      3.059
REMARK  Name = 
REMARK  2 active torsions:
REMARK  status: ('A' for Active; 'I' for Inactive)
REMARK    1  A    between atoms: C_6  and  C_7
REMARK    2  A    between atoms: C_7  and  N_8
REMARK                            x       y       z     vdW  Elec       q    Type
REMARK                         _______ _______ _______ _____ _____    ______ ____
ROOT
ATOM      1  N   UNL     1       3.710   5.514  -8.994  0.00  0.00    -0.270 N 
ATOM      2  C   UNL     1       3.631   5.685 -10.415  0.00  0.00    +0.250 C 
ATOM      3  O   UNL     1       2.682   6.386 -10.878  0.00  0.00    -0.270 OA
ATOM      4  C   UNL     1       4.809   5.405 -11.248  0.00  0.00    +0.067 A 
ATOM      5  C   UNL     1       5.026   5.580 -12.609  0.00  0.00    +0.021 A 
ATOM      6  C   UNL     1       6.381   5.774 -12.840  0.00  0.00    +0.060 A 
ATOM      7  N   UNL     1       7.008   5.539 -11.661  0.00  0.00    -0.328 N 
ATOM      8  C   UNL     1       8.348   6.050 -11.382  0.00  0.00    +0.130 C 
ATOM      9  C   UNL     1       6.780   6.349 -14.035  0.00  0.00    +0.017 A 
ATOM     10  C   UNL     1       5.798   6.824 -14.896  0.00  0.00    +0.001 A 
ATOM     11  C   UNL     1       4.577   6.165 -14.846  0.00  0.00    +0.000 A 
ATOM     12  C   UNL     1       4.119   5.606 -13.662  0.00  0.00    +0.002 A 
ATOM     13  C   UNL     1       6.076   5.481 -10.679  0.00  0.00    +0.043 A 
ATOM     14  C   UNL     1       6.107   5.722  -9.204  0.00  0.00    +0.065 C 
ATOM     15  C   UNL     1       4.986   4.988  -8.513  0.00  0.00    +0.100 C 
ENDROOT
BRANCH   1  16
ATOM     16  C   UNL     1       2.996   6.480  -8.162  0.00  0.00    +0.141 C 
BRANCH  16  19
ATOM     17  C   UNL     1       2.012   4.027  -6.385  0.00  0.00    +0.053 C 
ATOM     18  C   UNL     1       2.552   5.317  -5.887  0.00  0.00    +0.076 A 
ATOM     19  C   UNL     1       3.219   6.216  -6.710  0.00  0.00    +0.094 A 
ATOM     20  N   UNL     1       3.711   7.144  -5.854  0.00  0.00    -0.225 NA
ATOM     21  C   UNL     1       3.086   6.990  -4.662  0.00  0.00    +0.198 A 
ATOM     22  N   UNL     1       2.277   5.909  -4.699  0.00  0.00    -0.227 NA
ENDBRANCH  16  19
ENDBRANCH   1  16
TORSDOF 2
ENDMDL
