MODEL 1
REMARK VINA RESULT:      -9.3      0.000      0.000
REMARK  Name = 
REMARK  8 active torsions:
REMARK  status: ('A' for Active; 'I' for Inactive)
REMARK    1  A    between atoms: C_2  and  C_4
REMARK    2  A    between atoms: C_4  and  O_5
REMARK    3  A    between atoms: O_5  and  C_6
REMARK    4  A    between atoms: C_9  and  C_10
REMARK    5  A    between atoms: C_10  and  N_11
REMARK    6  A    between atoms: N_14  and  C_15
REMARK    7  A    between atoms: N_14  and  C_23
REMARK    8  A    between atoms: C_15  and  C_16
REMARK                            x       y       z     vdW  Elec       q    Type
REMARK                         _______ _______ _______ _____ _____    ______ ____
ROOT
ATOM      1  N   UNL     1       1.357   5.070  -7.541  0.00  0.00    -0.184 NA
ATOM      2  C   UNL     1       1.808   4.704  -6.242  0.00  0.00    +0.324 C 
ATOM      3  N   UNL     1       1.816   5.624  -5.142  0.00  0.00    -0.260 N 
ATOM      4  O   UNL     1       2.298   3.546  -6.133  0.00  0.00    -0.251 OA
ENDROOT
BRANCH   3   5
ATOM      5  C   UNL     1       3.060   5.823  -4.437  0.00  0.00    +0.080 C 
ATOM      6  C   UNL     1       2.882   5.795  -2.929  0.00  0.00    +0.037 C 
ATOM      7  C   UNL     1       4.242   6.030  -2.318  0.00  0.00    +0.074 C 
ATOM      8  N   UNL     1       4.803   7.311  -2.664  0.00  0.00    -0.271 NA
ATOM      9  C   UNL     1       3.973   8.371  -2.148  0.00  0.00    +0.090 C 
ATOM     10  C   UNL     1       4.976   7.355  -4.091  0.00  0.00    +0.074 C 
ATOM     11  C   UNL     1       3.669   7.156  -4.794  0.00  0.00    +0.037 C 
ENDBRANCH   3   5
BRANCH   3  12
ATOM     12  C   UNL     1       0.694   6.539  -5.073  0.00  0.00    +0.122 C 
BRANCH  12  13
ATOM     13  C   UNL     1      -0.481   5.743  -4.597  0.00  0.00    -0.002 A 
ATOM     14  C   UNL     1      -0.605   5.357  -3.267  0.00  0.00    -0.000 A 
ATOM     15  C   UNL     1      -1.807   5.480  -2.582  0.00  0.00    +0.029 A 
ATOM     16  C   UNL     1      -2.958   5.871  -3.255  0.00  0.00    +0.140 A 
ATOM     17  F   UNL     1      -3.841   6.708  -2.634  0.00  0.00    -0.204 F 
ATOM     18  C   UNL     1      -2.891   5.772  -4.640  0.00  0.00    +0.029 A 
ATOM     19  C   UNL     1      -1.675   5.727  -5.311  0.00  0.00    -0.000 A 
ENDBRANCH  12  13
ENDBRANCH   3  12
BRANCH   1  20
ATOM     20  C   UNL     1       2.070   4.674  -8.730  0.00  0.00    +0.143 C 
BRANCH  20  24
ATOM     21  C   UNL     1       5.703   6.220 -10.168  0.00  0.00    +0.139 A 
ATOM     22  C   UNL     1       5.695   5.401  -9.049  0.00  0.00    +0.037 A 
ATOM     23  C   UNL     1       4.530   5.095  -8.362  0.00  0.00    +0.001 A 
ATOM     24  C   UNL     1       3.321   5.428  -8.944  0.00  0.00    -0.000 A 
ATOM     25  C   UNL     1       3.337   6.480  -9.848  0.00  0.00    +0.001 A 
ATOM     26  C   UNL     1       4.499   6.740 -10.563  0.00  0.00    +0.037 A 
BRANCH  21  27
ATOM     27  O   UNL     1       6.874   6.832 -10.625  0.00  0.00    -0.475 OA
BRANCH  27  28
ATOM     28  C   UNL     1       6.898   7.277 -11.977  0.00  0.00    +0.205 C 
BRANCH  28  30
ATOM     29  C   UNL     1       8.799   5.727 -11.913  0.00  0.00    +0.004 C 
ATOM     30  C   UNL     1       7.802   6.427 -12.828  0.00  0.00    +0.044 C 
ATOM     31  C   UNL     1       6.944   5.340 -13.465  0.00  0.00    +0.004 C 
ENDBRANCH  28  30
ENDBRANCH  27  28
ENDBRANCH  21  27
ENDBRANCH  20  24
ENDBRANCH   1  20
TORSDOF 8
ENDMDL
MODEL 2
REMARK VINA RESULT:      -9.1      3.598      9.191
REMARK  Name = 
REMARK  8 active torsions:
REMARK  status: ('A' for Active; 'I' for Inactive)
REMARK    1  A    between atoms: C_2  and  C_4
REMARK    2  A    between atoms: C_4  and  O_5
REMARK    3  A    between atoms: O_5  and  C_6
REMARK    4  A    between atoms: C_9  and  C_10
REMARK    5  A    between atoms: C_10  and  N_11
REMARK    6  A    between atoms: N_14  and  C_15
REMARK    7  A    between atoms: N_14  and  C_23
REMARK    8  A    between atoms: C_15  and  C_16
REMARK                            x       y       z     vdW  Elec       q    Type
REMARK                         _______ _______ _______ _____ _____    ______ ____
ROOT
ATOM      1  N   UNL     1       4.688   5.964  -7.887  0.00  0.00    -0.184 NA
ATOM      2  C   UNL     1       4.235   5.313  -9.068  0.00  0.00    +0.324 C 
ATOM      3  N   UNL     1       3.633   6.024 -10.157  0.00  0.00    -0.260 N 
ATOM      4  O   UNL     1       4.303   4.052  -9.063  0.00  0.00    -0.251 OA
ENDROOT
BRANCH   3   5
ATOM      5  C   UNL     1       2.332   5.591 -10.609  0.00  0.00    +0.080 C 
ATOM      6  C   UNL     1       2.013   6.080 -12.011  0.00  0.00    +0.037 C 
ATOM      7  C   UNL     1       0.631   5.577 -12.352  0.00  0.00    +0.074 C 
ATOM      8  N   UNL     1      -0.389   6.089 -11.473  0.00  0.00    -0.271 NA
ATOM      9  C   UNL     1      -0.473   7.524 -11.593  0.00  0.00    +0.090 C 
ATOM     10  C   UNL     1      -0.101   5.637 -10.139  0.00  0.00    +0.074 C 
ATOM     11  C   UNL     1       1.250   6.110  -9.695  0.00  0.00    +0.037 C 
ENDBRANCH   3   5
BRANCH   3  12
ATOM     12  C   UNL     1       4.199   7.323 -10.457  0.00  0.00    +0.122 C 
BRANCH  12  13
ATOM     13  C   UNL     1       5.487   7.076 -11.178  0.00  0.00    -0.002 A 
ATOM     14  C   UNL     1       6.676   7.668 -10.764  0.00  0.00    -0.000 A 
ATOM     15  C   UNL     1       7.858   6.945 -10.680  0.00  0.00    +0.029 A 
ATOM     16  C   UNL     1       7.910   5.634 -11.139  0.00  0.00    +0.140 A 
ATOM     17  F   UNL     1       8.641   4.714 -10.444  0.00  0.00    -0.204 F 
ATOM     18  C   UNL     1       6.861   5.261 -11.971  0.00  0.00    +0.029 A 
ATOM     19  C   UNL     1       5.657   5.956 -11.984  0.00  0.00    -0.000 A 
ENDBRANCH  12  13
ENDBRANCH   3  12
BRANCH   1  20
ATOM     20  C   UNL     1       4.439   5.418  -6.577  0.00  0.00    +0.143 C 
BRANCH  20  24
ATOM     21  C   UNL     1       0.267   5.739  -6.193  0.00  0.00    +0.139 A 
ATOM     22  C   UNL     1       1.045   6.885  -6.261  0.00  0.00    +0.037 A 
ATOM     23  C   UNL     1       2.421   6.857  -6.102  0.00  0.00    +0.001 A 
ATOM     24  C   UNL     1       3.055   5.628  -6.105  0.00  0.00    -0.000 A 
ATOM     25  C   UNL     1       2.291   4.535  -5.725  0.00  0.00    +0.001 A 
ATOM     26  C   UNL     1       0.919   4.563  -5.938  0.00  0.00    +0.037 A 
BRANCH  21  27
ATOM     27  O   UNL     1      -1.113   5.797  -5.971  0.00  0.00    -0.475 OA
BRANCH  27  28
ATOM     28  C   UNL     1      -1.563   5.761  -4.621  0.00  0.00    +0.205 C 
BRANCH  28  30
ATOM     29  C   UNL     1      -3.111   6.631  -2.927  0.00  0.00    +0.004 C 
ATOM     30  C   UNL     1      -2.604   6.814  -4.352  0.00  0.00    +0.044 C 
ATOM     31  C   UNL     1      -1.911   8.170  -4.407  0.00  0.00    +0.004 C 
ENDBRANCH  28  30
ENDBRANCH  27  28
ENDBRANCH  21  27
ENDBRANCH  20  24
ENDBRANCH   1  20
TORSDOF 8
ENDMDL
MODEL 3
REMARK VINA RESULT:      -9.0      2.233      4.578
REMARK  Name = 
REMARK  8 active torsions:
REMARK  status: ('A' for Active; 'I' for Inactive)
REMARK    1  A    between atoms: C_2  and  C_4
REMARK    2  A    between atoms: C_4  and  O_5
REMARK    3  A    between atoms: O_5  and  C_6
REMARK    4  A    between atoms: C_9  and  C_10
REMARK    5  A    between atoms: C_10  and  N_11
REMARK    6  A    between atoms: N_14  and  C_15
REMARK    7  A    between atoms: N_14  and  C_23
REMARK    8  A    between atoms: C_15  and  C_16
REMARK                            x       y       z     vdW  Elec       q    Type
REMARK                         _______ _______ _______ _____ _____    ______ ____
ROOT
ATOM      1  N   UNL     1       2.239   5.137  -7.038  0.00  0.00    -0.184 NA
ATOM      2  C   UNL     1       1.795   6.255  -6.277  0.00  0.00    +0.324 C 
ATOM      3  N   UNL     1       1.179   6.116  -4.991  0.00  0.00    -0.260 N 
ATOM      4  O   UNL     1       1.886   7.380  -6.845  0.00  0.00    -0.251 OA
ENDROOT
BRANCH   3   5
ATOM      5  C   UNL     1      -0.115   6.725  -4.793  0.00  0.00    +0.080 C 
ATOM      6  C   UNL     1      -0.585   6.633  -3.351  0.00  0.00    +0.037 C 
ATOM      7  C   UNL     1      -1.944   7.285  -3.286  0.00  0.00    +0.074 C 
ATOM      8  N   UNL     1      -2.929   6.624  -4.104  0.00  0.00    -0.271 NA
ATOM      9  C   UNL     1      -3.137   5.276  -3.637  0.00  0.00    +0.090 C 
ATOM     10  C   UNL     1      -2.498   6.700  -5.474  0.00  0.00    +0.074 C 
ATOM     11  C   UNL     1      -1.159   6.052  -5.650  0.00  0.00    +0.037 C 
ENDBRANCH   3   5
BRANCH   3  12
ATOM     12  C   UNL     1       1.721   5.079  -4.137  0.00  0.00    +0.122 C 
BRANCH  12  13
ATOM     13  C   UNL     1       2.945   5.649  -3.491  0.00  0.00    -0.002 A 
ATOM     14  C   UNL     1       4.221   5.327  -3.944  0.00  0.00    -0.000 A 
ATOM     15  C   UNL     1       5.198   6.298  -4.115  0.00  0.00    +0.029 A 
ATOM     16  C   UNL     1       4.965   7.606  -3.708  0.00  0.00    +0.140 A 
ATOM     17  F   UNL     1       5.433   8.636  -4.473  0.00  0.00    -0.204 F 
ATOM     18  C   UNL     1       3.893   7.767  -2.837  0.00  0.00    +0.029 A 
ATOM     19  C   UNL     1       2.884   6.816  -2.737  0.00  0.00    -0.000 A 
ENDBRANCH  12  13
ENDBRANCH   3  12
BRANCH   1  20
ATOM     20  C   UNL     1       2.001   5.044  -8.457  0.00  0.00    +0.143 C 
BRANCH  20  24
ATOM     21  C   UNL     1       5.625   6.447 -10.055  0.00  0.00    +0.139 A 
ATOM     22  C   UNL     1       4.425   6.782 -10.664  0.00  0.00    +0.037 A 
ATOM     23  C   UNL     1       3.237   6.133 -10.368  0.00  0.00    +0.001 A 
ATOM     24  C   UNL     1       3.207   5.290  -9.273  0.00  0.00    -0.000 A 
ATOM     25  C   UNL     1       4.416   4.731  -8.887  0.00  0.00    +0.001 A 
ATOM     26  C   UNL     1       5.594   5.420  -9.150  0.00  0.00    +0.037 A 
BRANCH  21  27
ATOM     27  O   UNL     1       6.858   6.811 -10.604  0.00  0.00    -0.475 OA
BRANCH  27  28
ATOM     28  C   UNL     1       6.867   7.280 -11.949  0.00  0.00    +0.205 C 
BRANCH  28  30
ATOM     29  C   UNL     1       8.724   5.679 -11.988  0.00  0.00    +0.004 C 
ATOM     30  C   UNL     1       7.685   6.391 -12.844  0.00  0.00    +0.044 C 
ATOM     31  C   UNL     1       6.756   5.319 -13.401  0.00  0.00    +0.004 C 
ENDBRANCH  28  30
ENDBRANCH  27  28
ENDBRANCH  21  27
ENDBRANCH  20  24
ENDBRANCH   1  20
TORSDOF 8
ENDMDL
MODEL 4
REMARK VINA RESULT:      -8.5      3.916      6.265
REMARK  Name = 
REMARK  8 active torsions:
REMARK  status: ('A' for Active; 'I' for Inactive)
REMARK    1  A    between atoms: C_2  and  C_4
REMARK    2  A    between atoms: C_4  and  O_5
REMARK    3  A    between atoms: O_5  and  C_6
REMARK    4  A    between atoms: C_9  and  C_10
REMARK    5  A    between atoms: C_10  and  N_11
REMARK    6  A    between atoms: N_14  and  C_15
REMARK    7  A    between atoms: N_14  and  C_23
REMARK    8  A    between atoms: C_15  and  C_16
REMARK                            x       y       z     vdW  Elec       q    Type
REMARK                         _______ _______ _______ _____ _____    ______ ____
ROOT
ATOM      1  N   UNL     1       0.914   5.469  -8.833  0.00  0.00    -0.184 NA
ATOM      2  C   UNL     1       2.228   4.923  -8.826  0.00  0.00    +0.324 C 
ATOM      3  N   UNL     1       3.402   5.742  -8.773  0.00  0.00    -0.260 N 
ATOM      4  O   UNL     1       2.305   3.671  -8.969  0.00  0.00    -0.251 OA
ENDROOT
BRANCH   3   5
ATOM      5  C   UNL     1       4.401   5.558  -9.800  0.00  0.00    +0.080 C 
ATOM      6  C   UNL     1       5.778   6.020  -9.358  0.00  0.00    +0.037 C 
ATOM      7  C   UNL     1       6.716   5.791 -10.518  0.00  0.00    +0.074 C 
ATOM      8  N   UNL     1       6.361   6.550 -11.691  0.00  0.00    -0.271 NA
ATOM      9  C   UNL     1       6.448   7.962 -11.412  0.00  0.00    +0.090 C 
ATOM     10  C   UNL     1       5.056   6.126 -12.122  0.00  0.00    +0.074 C 
ATOM     11  C   UNL     1       4.041   6.338 -11.040  0.00  0.00    +0.037 C 
ENDBRANCH   3   5
BRANCH   3  12
ATOM     12  C   UNL     1       3.317   6.920  -7.933  0.00  0.00    +0.122 C 
BRANCH  12  13
ATOM     13  C   UNL     1       3.368   6.442  -6.516  0.00  0.00    -0.002 A 
ATOM     14  C   UNL     1       4.572   6.108  -5.906  0.00  0.00    -0.000 A 
ATOM     15  C   UNL     1       4.877   6.528  -4.618  0.00  0.00    +0.029 A 
ATOM     16  C   UNL     1       3.922   7.186  -3.853  0.00  0.00    +0.140 A 
ATOM     17  F   UNL     1       4.310   8.219  -3.048  0.00  0.00    -0.204 F 
ATOM     18  C   UNL     1       2.616   7.065  -4.312  0.00  0.00    +0.029 A 
ATOM     19  C   UNL     1       2.333   6.716  -5.627  0.00  0.00    -0.000 A 
ENDBRANCH  12  13
ENDBRANCH   3  12
BRANCH   1  20
ATOM     20  C   UNL     1      -0.112   4.964  -9.711  0.00  0.00    +0.143 C 
BRANCH  20  24
ATOM     21  C   UNL     1       1.058   6.678 -13.364  0.00  0.00    +0.139 A 
ATOM     22  C   UNL     1       0.331   7.427 -12.451  0.00  0.00    +0.037 A 
ATOM     23  C   UNL     1      -0.322   6.851 -11.373  0.00  0.00    +0.001 A 
ATOM     24  C   UNL     1      -0.051   5.529 -11.074  0.00  0.00    -0.000 A 
ATOM     25  C   UNL     1       0.392   4.734 -12.121  0.00  0.00    +0.001 A 
ATOM     26  C   UNL     1       1.088   5.323 -13.169  0.00  0.00    +0.037 A 
BRANCH  21  27
ATOM     27  O   UNL     1       1.387   7.175 -14.630  0.00  0.00    -0.475 OA
BRANCH  27  28
ATOM     28  C   UNL     1       0.490   8.108 -15.224  0.00  0.00    +0.205 C 
BRANCH  28  30
ATOM     29  C   UNL     1       1.358  10.321 -15.827  0.00  0.00    +0.004 C 
ATOM     30  C   UNL     1       1.151   8.895 -16.321  0.00  0.00    +0.044 C 
ATOM     31  C   UNL     1       2.534   8.297 -16.547  0.00  0.00    +0.004 C 
ENDBRANCH  28  30
ENDBRANCH  27  28
ENDBRANCH  21  27
ENDBRANCH  20  24
ENDBRANCH   1  20
TORSDOF 8
ENDMDL
MODEL 5
REMARK VINA RESULT:      -8.3      2.933      7.583
REMARK  Name = 
REMARK  8 active torsions:
REMARK  status: ('A' for Active; 'I' for Inactive)
REMARK    1  A    between atoms: C_2  and  C_4
REMARK    2  A    between atoms: C_4  and  O_5
REMARK    3  A    between atoms: O_5  and  C_6
REMARK    4  A    between atoms: C_9  and  C_10
REMARK    5  A    between atoms: C_10  and  N_11
REMARK    6  A    between atoms: N_14  and  C_15
REMARK    7  A    between atoms: N_14  and  C_23
REMARK    8  A    between atoms: C_15  and  C_16
REMARK                            x       y       z     vdW  Elec       q    Type
REMARK                         _______ _______ _______ _____ _____    ______ ____
ROOT
ATOM      1  N   UNL     1       2.861   5.755  -6.275  0.00  0.00    -0.184 NA
ATOM      2  C   UNL     1       2.181   6.670  -7.127  0.00  0.00    +0.324 C 
ATOM      3  N   UNL     1       1.149   6.258  -8.032  0.00  0.00    -0.260 N 
ATOM      4  O   UNL     1       2.607   7.858  -7.111  0.00  0.00    -0.251 OA
ENDROOT
BRANCH   3   5
ATOM      5  C   UNL     1       1.296   6.606  -9.426  0.00  0.00    +0.080 C 
ATOM      6  C   UNL     1      -0.026   6.577 -10.173  0.00  0.00    +0.037 C 
ATOM      7  C   UNL     1       0.269   6.939 -11.608  0.00  0.00    +0.074 C 
ATOM      8  N   UNL     1       1.153   6.004 -12.257  0.00  0.00    -0.271 NA
ATOM      9  C   UNL     1       0.538   4.702 -12.319  0.00  0.00    +0.090 C 
ATOM     10  C   UNL     1       2.410   6.018 -11.560  0.00  0.00    +0.074 C 
ATOM     11  C   UNL     1       2.227   5.644 -10.121  0.00  0.00    +0.037 C 
ENDBRANCH   3   5
BRANCH   3  12
ATOM     12  C   UNL     1       0.256   5.225  -7.549  0.00  0.00    +0.122 C 
BRANCH  12  13
ATOM     13  C   UNL     1      -0.759   5.903  -6.683  0.00  0.00    -0.002 A 
ATOM     14  C   UNL     1      -2.113   5.601  -6.780  0.00  0.00    -0.000 A 
ATOM     15  C   UNL     1      -2.897   5.405  -5.651  0.00  0.00    +0.029 A 
ATOM     16  C   UNL     1      -2.373   5.639  -4.386  0.00  0.00    +0.140 A 
ATOM     17  F   UNL     1      -2.712   4.805  -3.359  0.00  0.00    -0.204 F 
ATOM     18  C   UNL     1      -1.204   6.391  -4.365  0.00  0.00    +0.029 A 
ATOM     19  C   UNL     1      -0.393   6.512  -5.488  0.00  0.00    -0.000 A 
ENDBRANCH  12  13
ENDBRANCH   3  12
BRANCH   1  20
ATOM     20  C   UNL     1       4.289   5.811  -6.088  0.00  0.00    +0.143 C 
BRANCH  20  24
ATOM     21  C   UNL     1       4.416   6.766  -1.999  0.00  0.00    +0.139 A 
ATOM     22  C   UNL     1       4.804   7.708  -2.941  0.00  0.00    +0.037 A 
ATOM     23  C   UNL     1       5.056   7.374  -4.262  0.00  0.00    +0.001 A 
ATOM     24  C   UNL     1       4.689   6.114  -4.700  0.00  0.00    -0.000 A 
ATOM     25  C   UNL     1       4.614   5.120  -3.736  0.00  0.00    +0.001 A 
ATOM     26  C   UNL     1       4.311   5.470  -2.426  0.00  0.00    +0.037 A 
BRANCH  21  27
ATOM     27  O   UNL     1       4.531   7.006  -0.626  0.00  0.00    -0.475 OA
BRANCH  27  28
ATOM     28  C   UNL     1       3.346   7.353   0.083  0.00  0.00    +0.205 C 
BRANCH  28  30
ATOM     29  C   UNL     1       4.937   8.538   1.526  0.00  0.00    +0.004 C 
ATOM     30  C   UNL     1       3.539   8.586   0.922  0.00  0.00    +0.044 C 
ATOM     31  C   UNL     1       3.500   9.789  -0.012  0.00  0.00    +0.004 C 
ENDBRANCH  28  30
ENDBRANCH  27  28
ENDBRANCH  21  27
ENDBRANCH  20  24
ENDBRANCH   1  20
TORSDOF 8
ENDMDL
MODEL 6
REMARK VINA RESULT:      -8.2      4.074     10.042
REMARK  Name = 
REMARK  8 active torsions:
REMARK  status: ('A' for Active; 'I' for Inactive)
REMARK    1  A    between atoms: C_2  and  C_4
REMARK    2  A    between atoms: C_4  and  O_5
REMARK    3  A    between atoms: O_5  and  C_6
REMARK    4  A    between atoms: C_9  and  C_10
REMARK    5  A    between atoms: C_10  and  N_11
REMARK    6  A    between atoms: N_14  and  C_15
REMARK    7  A    between atoms: N_14  and  C_23
REMARK    8  A    between atoms: C_15  and  C_16
REMARK                            x       y       z     vdW  Elec       q    Type
REMARK                         _______ _______ _______ _____ _____    ______ ____
ROOT
ATOM      1  N   UNL     1       1.073   5.834  -8.606  0.00  0.00    -0.184 NA
ATOM      2  C   UNL     1       1.663   5.361  -9.812  0.00  0.00    +0.324 C 
ATOM      3  N   UNL     1       2.645   6.113 -10.535  0.00  0.00    -0.260 N 
ATOM      4  O   UNL     1       1.197   4.278 -10.265  0.00  0.00    -0.251 OA
ENDROOT
BRANCH   3   5
ATOM      5  C   UNL     1       2.393   6.385 -11.931  0.00  0.00    +0.080 C 
ATOM      6  C   UNL     1       0.909   6.448 -12.251  0.00  0.00    +0.037 C 
ATOM      7  C   UNL     1       0.787   6.720 -13.730  0.00  0.00    +0.074 C 
ATOM      8  N   UNL     1       1.361   5.680 -14.545  0.00  0.00    -0.271 NA
ATOM      9  C   UNL     1       0.658   4.439 -14.333  0.00  0.00    +0.090 C 
ATOM     10  C   UNL     1       2.767   5.605 -14.253  0.00  0.00    +0.074 C 
ATOM     11  C   UNL     1       2.996   5.311 -12.802  0.00  0.00    +0.037 C 
ENDBRANCH   3   5
BRANCH   3  12
ATOM     12  C   UNL     1       3.604   6.843  -9.732  0.00  0.00    +0.122 C 
BRANCH  12  13
ATOM     13  C   UNL     1       4.953   6.576 -10.323  0.00  0.00    -0.002 A 
ATOM     14  C   UNL     1       5.571   7.495 -11.164  0.00  0.00    -0.000 A 
ATOM     15  C   UNL     1       6.913   7.822 -11.024  0.00  0.00    +0.029 A 
ATOM     16  C   UNL     1       7.709   7.134 -10.117  0.00  0.00    +0.140 A 
ATOM     17  F   UNL     1       8.652   7.819  -9.404  0.00  0.00    -0.204 F 
ATOM     18  C   UNL     1       7.180   5.930  -9.666  0.00  0.00    +0.029 A 
ATOM     19  C   UNL     1       5.821   5.654  -9.747  0.00  0.00    -0.000 A 
ENDBRANCH  12  13
ENDBRANCH   3  12
BRANCH   1  20
ATOM     20  C   UNL     1      -0.341   5.709  -8.353  0.00  0.00    +0.143 C 
BRANCH  20  24
ATOM     21  C   UNL     1      -1.907   6.519  -4.539  0.00  0.00    +0.139 A 
ATOM     22  C   UNL     1      -0.590   6.844  -4.829  0.00  0.00    +0.037 A 
ATOM     23  C   UNL     1       0.065   6.355  -5.948  0.00  0.00    +0.001 A 
ATOM     24  C   UNL     1      -0.684   5.714  -6.917  0.00  0.00    -0.000 A 
ATOM     25  C   UNL     1      -1.871   5.130  -6.498  0.00  0.00    +0.001 A 
ATOM     26  C   UNL     1      -2.538   5.665  -5.404  0.00  0.00    +0.037 A 
BRANCH  21  27
ATOM     27  O   UNL     1      -2.442   6.682  -3.258  0.00  0.00    -0.475 OA
BRANCH  27  28
ATOM     28  C   UNL     1      -1.881   7.700  -2.436  0.00  0.00    +0.205 C 
BRANCH  28  30
ATOM     29  C   UNL     1      -1.838   7.950   0.004  0.00  0.00    +0.004 C 
ATOM     30  C   UNL     1      -1.302   7.137  -1.167  0.00  0.00    +0.044 C 
ATOM     31  C   UNL     1      -1.838   5.719  -1.007  0.00  0.00    +0.004 C 
ENDBRANCH  28  30
ENDBRANCH  27  28
ENDBRANCH  21  27
ENDBRANCH  20  24
ENDBRANCH   1  20
TORSDOF 8
ENDMDL
MODEL 7
REMARK VINA RESULT:      -8.2      3.806      9.243
REMARK  Name = 
REMARK  8 active torsions:
REMARK  status: ('A' for Active; 'I' for Inactive)
REMARK    1  A    between atoms: C_2  and  C_4
REMARK    2  A    between atoms: C_4  and  O_5
REMARK    3  A    between atoms: O_5  and  C_6
REMARK    4  A    between atoms: C_9  and  C_10
REMARK    5  A    between atoms: C_10  and  N_11
REMARK    6  A    between atoms: N_14  and  C_15
REMARK    7  A    between atoms: N_14  and  C_23
REMARK    8  A    between atoms: C_15  and  C_16
REMARK                            x       y       z     vdW  Elec       q    Type
REMARK                         _______ _______ _______ _____ _____    ______ ____
ROOT
ATOM      1  N   UNL     1       5.054   5.317  -7.800  0.00  0.00    -0.184 NA
ATOM      2  C   UNL     1       4.218   5.048  -8.920  0.00  0.00    +0.324 C 
ATOM      3  N   UNL     1       3.987   6.009  -9.957  0.00  0.00    -0.260 N 
ATOM      4  O   UNL     1       3.608   3.942  -8.900  0.00  0.00    -0.251 OA
ENDROOT
BRANCH   3   5
ATOM      5  C   UNL     1       2.618   6.347 -10.271  0.00  0.00    +0.080 C 
ATOM      6  C   UNL     1       1.632   5.750  -9.283  0.00  0.00    +0.037 C 
ATOM      7  C   UNL     1       0.251   6.160  -9.732  0.00  0.00    +0.074 C 
ATOM      8  N   UNL     1      -0.091   5.660 -11.039  0.00  0.00    -0.271 NA
ATOM      9  C   UNL     1      -0.114   4.218 -11.027  0.00  0.00    +0.090 C 
ATOM     10  C   UNL     1       0.836   6.214 -11.989  0.00  0.00    +0.074 C 
ATOM     11  C   UNL     1       2.244   5.839 -11.642  0.00  0.00    +0.037 C 
ENDBRANCH   3   5
BRANCH   3  12
ATOM     12  C   UNL     1       5.124   6.823 -10.333  0.00  0.00    +0.122 C 
BRANCH  12  13
ATOM     13  C   UNL     1       6.168   5.888 -10.859  0.00  0.00    -0.002 A 
ATOM     14  C   UNL     1       6.136   5.429 -12.171  0.00  0.00    -0.000 A 
ATOM     15  C   UNL     1       7.280   5.393 -12.958  0.00  0.00    +0.029 A 
ATOM     16  C   UNL     1       8.519   5.693 -12.405  0.00  0.00    +0.140 A 
ATOM     17  F   UNL     1       9.423   6.403 -13.141  0.00  0.00    -0.204 F 
ATOM     18  C   UNL     1       8.563   5.667 -11.015  0.00  0.00    +0.029 A 
ATOM     19  C   UNL     1       7.412   5.780 -10.245  0.00  0.00    -0.000 A 
ENDBRANCH  12  13
ENDBRANCH   3  12
BRANCH   1  20
ATOM     20  C   UNL     1       4.676   4.937  -6.462  0.00  0.00    +0.143 C 
BRANCH  20  24
ATOM     21  C   UNL     1       1.175   6.125  -4.466  0.00  0.00    +0.139 A 
ATOM     22  C   UNL     1       1.271   4.844  -4.990  0.00  0.00    +0.037 A 
ATOM     23  C   UNL     1       2.260   4.485  -5.891  0.00  0.00    +0.001 A 
ATOM     24  C   UNL     1       3.310   5.361  -6.095  0.00  0.00    -0.000 A 
ATOM     25  C   UNL     1       3.057   6.701  -5.840  0.00  0.00    +0.001 A 
ATOM     26  C   UNL     1       2.097   7.041  -4.897  0.00  0.00    +0.037 A 
BRANCH  21  27
ATOM     27  O   UNL     1      -0.004   6.594  -3.877  0.00  0.00    -0.475 OA
BRANCH  27  28
ATOM     28  C   UNL     1      -1.227   5.982  -4.274  0.00  0.00    +0.205 C 
BRANCH  28  30
ATOM     29  C   UNL     1      -2.589   5.518  -6.261  0.00  0.00    +0.004 C 
ATOM     30  C   UNL     1      -1.762   6.579  -5.546  0.00  0.00    +0.044 C 
ATOM     31  C   UNL     1      -2.717   7.702  -5.161  0.00  0.00    +0.004 C 
ENDBRANCH  28  30
ENDBRANCH  27  28
ENDBRANCH  21  27
ENDBRANCH  20  24
ENDBRANCH   1  20
TORSDOF 8
ENDMDL
MODEL 8
REMARK VINA RESULT:      -8.1      3.404      9.088
REMARK  Name = 
REMARK  8 active torsions:
REMARK  status: ('A' for Active; 'I' for Inactive)
REMARK    1  A    between atoms: C_2  and  C_4
REMARK    2  A    between atoms: C_4  and  O_5
REMARK    3  A    between atoms: O_5  and  C_6
REMARK    4  A    between atoms: C_9  and  C_10
REMARK    5  A    between atoms: C_10  and  N_11
REMARK    6  A    between atoms: N_14  and  C_15
REMARK    7  A    between atoms: N_14  and  C_23
REMARK    8  A    between atoms: C_15  and  C_16
REMARK                            x       y       z     vdW  Elec       q    Type
REMARK                         _______ _______ _______ _____ _____    ______ ____
ROOT
ATOM      1  N   UNL     1      -0.092   6.135  -5.480  0.00  0.00    -0.184 NA
ATOM      2  C   UNL     1       0.820   5.330  -6.220  0.00  0.00    +0.324 C 
ATOM      3  N   UNL     1       1.740   5.883  -7.169  0.00  0.00    -0.260 N 
ATOM      4  O   UNL     1       0.704   4.082  -6.065  0.00  0.00    -0.251 OA
ENDROOT
BRANCH   3   5
ATOM      5  C   UNL     1       1.724   5.354  -8.512  0.00  0.00    +0.080 C 
ATOM      6  C   UNL     1       2.560   6.183  -9.471  0.00  0.00    +0.037 C 
ATOM      7  C   UNL     1       2.445   5.537 -10.831  0.00  0.00    +0.074 C 
ATOM      8  N   UNL     1       1.095   5.520 -11.336  0.00  0.00    -0.271 NA
ATOM      9  C   UNL     1       0.619   6.868 -11.521  0.00  0.00    +0.090 C 
ATOM     10  C   UNL     1       0.289   4.740 -10.437  0.00  0.00    +0.074 C 
ATOM     11  C   UNL     1       0.318   5.318  -9.055  0.00  0.00    +0.037 C 
ENDBRANCH   3   5
BRANCH   3  12
ATOM     12  C   UNL     1       2.333   7.155  -6.811  0.00  0.00    +0.122 C 
BRANCH  12  13
ATOM     13  C   UNL     1       3.482   6.854  -5.900  0.00  0.00    -0.002 A 
ATOM     14  C   UNL     1       3.526   7.348  -4.600  0.00  0.00    -0.000 A 
ATOM     15  C   UNL     1       3.893   6.546  -3.528  0.00  0.00    +0.029 A 
ATOM     16  C   UNL     1       4.359   5.255  -3.748  0.00  0.00    +0.140 A 
ATOM     17  F   UNL     1       3.995   4.260  -2.887  0.00  0.00    -0.204 F 
ATOM     18  C   UNL     1       4.751   4.987  -5.055  0.00  0.00    +0.029 A 
ATOM     19  C   UNL     1       4.310   5.760  -6.123  0.00  0.00    -0.000 A 
ENDBRANCH  12  13
ENDBRANCH   3  12
BRANCH   1  20
ATOM     20  C   UNL     1      -1.465   5.742  -5.286  0.00  0.00    +0.143 C 
BRANCH  20  24
ATOM     21  C   UNL     1      -2.093   7.104  -1.361  0.00  0.00    +0.139 A 
ATOM     22  C   UNL     1      -2.373   5.786  -1.688  0.00  0.00    +0.037 A 
ATOM     23  C   UNL     1      -2.461   5.351  -3.001  0.00  0.00    +0.001 A 
ATOM     24  C   UNL     1      -2.032   6.202  -4.003  0.00  0.00    -0.000 A 
ATOM     25  C   UNL     1      -2.064   7.559  -3.719  0.00  0.00    +0.001 A 
ATOM     26  C   UNL     1      -1.925   7.978  -2.402  0.00  0.00    +0.037 A 
BRANCH  21  27
ATOM     27  O   UNL     1      -2.375   7.625  -0.095  0.00  0.00    -0.475 OA
BRANCH  27  28
ATOM     28  C   UNL     1      -1.333   8.328   0.575  0.00  0.00    +0.205 C 
BRANCH  28  30
ATOM     29  C   UNL     1       1.100   8.079   0.756  0.00  0.00    +0.004 C 
ATOM     30  C   UNL     1      -0.238   7.403   1.028  0.00  0.00    +0.044 C 
ATOM     31  C   UNL     1      -0.360   7.252   2.539  0.00  0.00    +0.004 C 
ENDBRANCH  28  30
ENDBRANCH  27  28
ENDBRANCH  21  27
ENDBRANCH  20  24
ENDBRANCH   1  20
TORSDOF 8
ENDMDL
MODEL 9
REMARK VINA RESULT:      -8.1      1.419      2.126
REMARK  Name = 
REMARK  8 active torsions:
REMARK  status: ('A' for Active; 'I' for Inactive)
REMARK    1  A    between atoms: C_2  and  C_4
REMARK    2  A    between atoms: C_4  and  O_5
REMARK    3  A    between atoms: O_5  and  C_6
REMARK    4  A    between atoms: C_9  and  C_10
REMARK    5  A    between atoms: C_10  and  N_11
REMARK    6  A    between atoms: N_14  and  C_15
REMARK    7  A    between atoms: N_14  and  C_23
REMARK    8  A    between atoms: C_15  and  C_16
REMARK                            x       y       z     vdW  Elec       q    Type
REMARK                         _______ _______ _______ _____ _____    ______ ____
ROOT
ATOM      1  N   UNL     1       1.772   5.521  -6.844  0.00  0.00    -0.184 NA
ATOM      2  C   UNL     1       1.316   5.232  -5.527  0.00  0.00    +0.324 C 
ATOM      3  N   UNL     1       0.647   6.203  -4.713  0.00  0.00    -0.260 N 
ATOM      4  O   UNL     1       1.624   4.094  -5.074  0.00  0.00    -0.251 OA
ENDROOT
BRANCH   3   5
ATOM      5  C   UNL     1       1.186   6.471  -3.400  0.00  0.00    +0.080 C 
ATOM      6  C   UNL     1       2.703   6.554  -3.402  0.00  0.00    +0.037 C 
ATOM      7  C   UNL     1       3.134   6.818  -1.980  0.00  0.00    +0.074 C 
ATOM      8  N   UNL     1       2.760   5.765  -1.071  0.00  0.00    -0.271 NA
ATOM      9  C   UNL     1       3.417   4.536  -1.439  0.00  0.00    +0.090 C 
ATOM     10  C   UNL     1       1.325   5.671  -1.059  0.00  0.00    +0.074 C 
ATOM     11  C   UNL     1       0.796   5.383  -2.431  0.00  0.00    +0.037 C 
ENDBRANCH   3   5
BRANCH   3  12
ATOM     12  C   UNL     1      -0.268   7.088  -5.404  0.00  0.00    +0.122 C 
BRANCH  12  13
ATOM     13  C   UNL     1      -1.599   6.939  -4.735  0.00  0.00    -0.002 A 
ATOM     14  C   UNL     1      -2.309   5.744  -4.789  0.00  0.00    -0.000 A 
ATOM     15  C   UNL     1      -2.914   5.206  -3.662  0.00  0.00    +0.029 A 
ATOM     16  C   UNL     1      -2.938   5.922  -2.471  0.00  0.00    +0.140 A 
ATOM     17  F   UNL     1      -2.771   5.257  -1.290  0.00  0.00    -0.204 F 
ATOM     18  C   UNL     1      -2.657   7.278  -2.596  0.00  0.00    +0.029 A 
ATOM     19  C   UNL     1      -1.982   7.785  -3.699  0.00  0.00    -0.000 A 
ENDBRANCH  12  13
ENDBRANCH   3  12
BRANCH   1  20
ATOM     20  C   UNL     1       3.066   5.089  -7.310  0.00  0.00    +0.143 C 
BRANCH  20  24
ATOM     21  C   UNL     1       4.880   6.531 -10.815  0.00  0.00    +0.139 A 
ATOM     22  C   UNL     1       3.976   7.326 -10.127  0.00  0.00    +0.037 A 
ATOM     23  C   UNL     1       3.140   6.819  -9.146  0.00  0.00    +0.001 A 
ATOM     24  C   UNL     1       3.376   5.538  -8.682  0.00  0.00    -0.000 A 
ATOM     25  C   UNL     1       4.029   4.675  -9.550  0.00  0.00    +0.001 A 
ATOM     26  C   UNL     1       4.901   5.199 -10.495  0.00  0.00    +0.037 A 
BRANCH  21  27
ATOM     27  O   UNL     1       5.436   6.930 -12.034  0.00  0.00    -0.475 OA
BRANCH  27  28
ATOM     28  C   UNL     1       6.801   7.336 -12.034  0.00  0.00    +0.205 C 
BRANCH  28  30
ATOM     29  C   UNL     1       8.356   5.444 -11.907  0.00  0.00    +0.004 C 
ATOM     30  C   UNL     1       7.657   6.411 -12.854  0.00  0.00    +0.044 C 
ATOM     31  C   UNL     1       6.729   5.581 -13.732  0.00  0.00    +0.004 C 
ENDBRANCH  28  30
ENDBRANCH  27  28
ENDBRANCH  21  27
ENDBRANCH  20  24
ENDBRANCH   1  20
TORSDOF 8
ENDMDL
