MODEL 1
REMARK VINA RESULT:      -7.9      0.000      0.000
REMARK  Name = 
REMARK  5 active torsions:
REMARK  status: ('A' for Active; 'I' for Inactive)
REMARK    1  A    between atoms: C_2  and  C_3
REMARK    2  A    between atoms: C_4  and  C_5
REMARK    3  A    between atoms: C_6  and  C_8
REMARK    4  A    between atoms: C_9  and  C_10
REMARK    5  A    between atoms: C_19  and  C_20
REMARK                            x       y       z     vdW  Elec       q    Type
REMARK                         _______ _______ _______ _____ _____    ______ ____
ROOT
ATOM      1  C   UNL     1       2.281   4.998 -10.100  0.00  0.00    -0.004 C 
ATOM      2  C   UNL     1       3.568   5.193  -9.840  0.00  0.00    -0.022 C 
ATOM      3  C   UNL     1       4.170   4.317  -8.794  0.00  0.00    +0.031 C 
ENDROOT
BRANCH   1   5
ATOM      4  C   UNL     1       0.732   5.598 -11.908  0.00  0.00    -0.004 C 
ATOM      5  C   UNL     1       1.457   5.907 -10.864  0.00  0.00    -0.001 C 
BRANCH   4   7
ATOM      6  C   UNL     1       0.677   7.746 -13.208  0.00  0.00    +0.031 C 
ATOM      7  C   UNL     1       0.830   6.261 -13.211  0.00  0.00    -0.015 C 
ATOM      8  C   UNL     1       0.699   5.631 -14.356  0.00  0.00    +0.082 C 
BRANCH   8   9
ATOM      9  C   UNL     1       0.914   4.203 -14.381  0.00  0.00    +0.388 C 
ATOM     10  O   UNL     1      -0.118   3.413 -14.900  0.00  0.00    -0.241 OA
ATOM     11  O   UNL     1       2.070   3.688 -14.454  0.00  0.00    -0.241 OA
ENDBRANCH   8   9
ENDBRANCH   4   7
ENDBRANCH   1   5
BRANCH   2  12
ATOM     12  C   UNL     1       4.026   6.587  -9.853  0.00  0.00    -0.005 C 
ATOM     13  C   UNL     1       4.678   6.970 -10.932  0.00  0.00    -0.005 C 
BRANCH  13  14
ATOM     14  C   UNL     1       5.784   6.113 -11.374  0.00  0.00    -0.031 C 
ATOM     15  C   UNL     1       7.113   6.459 -10.782  0.00  0.00    +0.018 C 
ATOM     16  C   UNL     1       7.221   7.978 -10.802  0.00  0.00    +0.004 C 
ATOM     17  C   UNL     1       7.215   6.029  -9.345  0.00  0.00    +0.004 C 
ATOM     18  C   UNL     1       8.261   5.877 -11.553  0.00  0.00    +0.004 C 
ATOM     19  C   UNL     1       8.014   5.971 -13.052  0.00  0.00    +0.005 C 
ATOM     20  C   UNL     1       6.843   5.044 -13.340  0.00  0.00    +0.022 C 
ATOM     21  C   UNL     1       5.665   5.577 -12.585  0.00  0.00    -0.048 C 
ATOM     22  C   UNL     1       4.462   5.876 -13.428  0.00  0.00    +0.026 C 
ENDBRANCH  13  14
ENDBRANCH   2  12
TORSDOF 5
ENDMDL
MODEL 2
REMARK VINA RESULT:      -7.4      7.876     11.068
REMARK  Name = 
REMARK  5 active torsions:
REMARK  status: ('A' for Active; 'I' for Inactive)
REMARK    1  A    between atoms: C_2  and  C_3
REMARK    2  A    between atoms: C_4  and  C_5
REMARK    3  A    between atoms: C_6  and  C_8
REMARK    4  A    between atoms: C_9  and  C_10
REMARK    5  A    between atoms: C_19  and  C_20
REMARK                            x       y       z     vdW  Elec       q    Type
REMARK                         _______ _______ _______ _____ _____    ______ ____
ROOT
ATOM      1  C   UNL     1       2.755   5.206  -5.102  0.00  0.00    -0.004 C 
ATOM      2  C   UNL     1       1.499   5.160  -5.532  0.00  0.00    -0.022 C 
ATOM      3  C   UNL     1       1.167   4.060  -6.482  0.00  0.00    +0.031 C 
ENDROOT
BRANCH   1   5
ATOM      4  C   UNL     1       4.167   6.269  -3.398  0.00  0.00    -0.004 C 
ATOM      5  C   UNL     1       3.339   6.332  -4.409  0.00  0.00    -0.001 C 
BRANCH   4   7
ATOM      6  C   UNL     1       4.038   8.425  -2.115  0.00  0.00    +0.031 C 
ATOM      7  C   UNL     1       3.954   6.934  -2.110  0.00  0.00    -0.015 C 
ATOM      8  C   UNL     1       4.039   6.318  -0.953  0.00  0.00    +0.082 C 
BRANCH   8   9
ATOM      9  C   UNL     1       3.890   4.881  -0.930  0.00  0.00    +0.388 C 
ATOM     10  O   UNL     1       4.987   4.134  -0.488  0.00  0.00    -0.241 OA
ATOM     11  O   UNL     1       2.764   4.315  -0.787  0.00  0.00    -0.241 OA
ENDBRANCH   8   9
ENDBRANCH   4   7
ENDBRANCH   1   5
BRANCH   2  12
ATOM     12  C   UNL     1       0.860   6.454  -5.797  0.00  0.00    -0.005 C 
ATOM     13  C   UNL     1       0.109   6.936  -4.828  0.00  0.00    -0.005 C 
BRANCH  13  14
ATOM     14  C   UNL     1      -0.895   6.029  -4.258  0.00  0.00    -0.031 C 
ATOM     15  C   UNL     1      -2.241   6.107  -4.904  0.00  0.00    +0.018 C 
ATOM     16  C   UNL     1      -2.534   7.585  -5.130  0.00  0.00    +0.004 C 
ATOM     17  C   UNL     1      -2.255   5.444  -6.254  0.00  0.00    +0.004 C 
ATOM     18  C   UNL     1      -3.327   5.517  -4.054  0.00  0.00    +0.004 C 
ATOM     19  C   UNL     1      -3.131   5.879  -2.589  0.00  0.00    +0.005 C 
ATOM     20  C   UNL     1      -1.863   5.164  -2.150  0.00  0.00    +0.022 C 
ATOM     21  C   UNL     1      -0.741   5.713  -2.976  0.00  0.00    -0.048 C 
ATOM     22  C   UNL     1       0.396   6.290  -2.188  0.00  0.00    +0.026 C 
ENDBRANCH  13  14
ENDBRANCH   2  12
TORSDOF 5
ENDMDL
MODEL 3
REMARK VINA RESULT:      -7.3      3.659      6.802
REMARK  Name = 
REMARK  5 active torsions:
REMARK  status: ('A' for Active; 'I' for Inactive)
REMARK    1  A    between atoms: C_2  and  C_3
REMARK    2  A    between atoms: C_4  and  C_5
REMARK    3  A    between atoms: C_6  and  C_8
REMARK    4  A    between atoms: C_9  and  C_10
REMARK    5  A    between atoms: C_19  and  C_20
REMARK                            x       y       z     vdW  Elec       q    Type
REMARK                         _______ _______ _______ _____ _____    ______ ____
ROOT
ATOM      1  C   UNL     1       4.139   5.209  -9.537  0.00  0.00    -0.004 C 
ATOM      2  C   UNL     1       3.209   5.061  -8.601  0.00  0.00    -0.022 C 
ATOM      3  C   UNL     1       2.587   3.710  -8.496  0.00  0.00    +0.031 C 
ENDROOT
BRANCH   1   5
ATOM      4  C   UNL     1       5.012   6.789 -11.201  0.00  0.00    -0.004 C 
ATOM      5  C   UNL     1       4.655   6.484  -9.979  0.00  0.00    -0.001 C 
BRANCH   4   7
ATOM      6  C   UNL     1       6.584   8.748 -11.234  0.00  0.00    +0.031 C 
ATOM      7  C   UNL     1       6.327   7.317 -11.573  0.00  0.00    -0.015 C 
ATOM      8  C   UNL     1       7.115   6.742 -12.453  0.00  0.00    +0.082 C 
BRANCH   8   9
ATOM      9  C   UNL     1       6.918   5.340 -12.737  0.00  0.00    +0.388 C 
ATOM     10  O   UNL     1       6.055   5.018 -13.790  0.00  0.00    -0.241 OA
ATOM     11  O   UNL     1       7.795   4.462 -12.475  0.00  0.00    -0.241 OA
ENDBRANCH   8   9
ENDBRANCH   4   7
ENDBRANCH   1   5
BRANCH   2  12
ATOM     12  C   UNL     1       2.307   6.201  -8.401  0.00  0.00    -0.005 C 
ATOM     13  C   UNL     1       2.348   6.768  -7.213  0.00  0.00    -0.005 C 
BRANCH  13  14
ATOM     14  C   UNL     1       2.235   5.877  -6.053  0.00  0.00    -0.031 C 
ATOM     15  C   UNL     1       0.853   5.757  -5.494  0.00  0.00    +0.018 C 
ATOM     16  C   UNL     1       0.259   7.160  -5.486  0.00  0.00    +0.004 C 
ATOM     17  C   UNL     1      -0.032   4.908  -6.365  0.00  0.00    +0.004 C 
ATOM     18  C   UNL     1       0.838   5.211  -4.096  0.00  0.00    +0.004 C 
ATOM     19  C   UNL     1       1.977   5.794  -3.272  0.00  0.00    +0.005 C 
ATOM     20  C   UNL     1       3.256   5.250  -3.887  0.00  0.00    +0.022 C 
ATOM     21  C   UNL     1       3.320   5.760  -5.293  0.00  0.00    -0.048 C 
ATOM     22  C   UNL     1       4.561   6.531  -5.626  0.00  0.00    +0.026 C 
ENDBRANCH  13  14
ENDBRANCH   2  12
TORSDOF 5
ENDMDL
MODEL 4
REMARK VINA RESULT:      -7.1      2.893      6.110
REMARK  Name = 
REMARK  5 active torsions:
REMARK  status: ('A' for Active; 'I' for Inactive)
REMARK    1  A    between atoms: C_2  and  C_3
REMARK    2  A    between atoms: C_4  and  C_5
REMARK    3  A    between atoms: C_6  and  C_8
REMARK    4  A    between atoms: C_9  and  C_10
REMARK    5  A    between atoms: C_19  and  C_20
REMARK                            x       y       z     vdW  Elec       q    Type
REMARK                         _______ _______ _______ _____ _____    ______ ____
ROOT
ATOM      1  C   UNL     1       1.765   5.290 -11.995  0.00  0.00    -0.004 C 
ATOM      2  C   UNL     1       1.080   5.269 -10.857  0.00  0.00    -0.022 C 
ATOM      3  C   UNL     1      -0.196   4.497 -10.868  0.00  0.00    +0.031 C 
ENDROOT
BRANCH   1   5
ATOM      4  C   UNL     1       4.118   5.852 -12.409  0.00  0.00    -0.004 C 
ATOM      5  C   UNL     1       2.861   6.189 -12.271  0.00  0.00    -0.001 C 
BRANCH   4   7
ATOM      6  C   UNL     1       4.842   7.414 -10.580  0.00  0.00    +0.031 C 
ATOM      7  C   UNL     1       5.221   6.430 -11.637  0.00  0.00    -0.015 C 
ATOM      8  C   UNL     1       6.474   6.403 -12.032  0.00  0.00    +0.082 C 
BRANCH   8   9
ATOM      9  C   UNL     1       6.865   5.409 -13.004  0.00  0.00    +0.388 C 
ATOM     10  O   UNL     1       6.785   5.771 -14.353  0.00  0.00    -0.241 OA
ATOM     11  O   UNL     1       7.703   4.494 -12.744  0.00  0.00    -0.241 OA
ENDBRANCH   8   9
ENDBRANCH   4   7
ENDBRANCH   1   5
BRANCH   2  12
ATOM     12  C   UNL     1       1.069   6.519 -10.088  0.00  0.00    -0.005 C 
ATOM     13  C   UNL     1       1.737   6.505  -8.954  0.00  0.00    -0.005 C 
BRANCH  13  14
ATOM     14  C   UNL     1       1.459   5.392  -8.038  0.00  0.00    -0.031 C 
ATOM     15  C   UNL     1       0.461   5.703  -6.968  0.00  0.00    +0.018 C 
ATOM     16  C   UNL     1       0.788   7.100  -6.455  0.00  0.00    +0.004 C 
ATOM     17  C   UNL     1      -0.942   5.749  -7.507  0.00  0.00    +0.004 C 
ATOM     18  C   UNL     1       0.517   4.735  -5.824  0.00  0.00    +0.004 C 
ATOM     19  C   UNL     1       1.957   4.378  -5.482  0.00  0.00    +0.005 C 
ATOM     20  C   UNL     1       2.486   3.599  -6.676  0.00  0.00    +0.022 C 
ATOM     21  C   UNL     1       2.445   4.520  -7.855  0.00  0.00    -0.048 C 
ATOM     22  C   UNL     1       3.760   4.711  -8.549  0.00  0.00    +0.026 C 
ENDBRANCH  13  14
ENDBRANCH   2  12
TORSDOF 5
ENDMDL
MODEL 5
REMARK VINA RESULT:      -6.9      5.747      7.112
REMARK  Name = 
REMARK  5 active torsions:
REMARK  status: ('A' for Active; 'I' for Inactive)
REMARK    1  A    between atoms: C_2  and  C_3
REMARK    2  A    between atoms: C_4  and  C_5
REMARK    3  A    between atoms: C_6  and  C_8
REMARK    4  A    between atoms: C_9  and  C_10
REMARK    5  A    between atoms: C_19  and  C_20
REMARK                            x       y       z     vdW  Elec       q    Type
REMARK                         _______ _______ _______ _____ _____    ______ ____
ROOT
ATOM      1  C   UNL     1       0.570   5.324  -6.156  0.00  0.00    -0.004 C 
ATOM      2  C   UNL     1       1.495   5.208  -7.102  0.00  0.00    -0.022 C 
ATOM      3  C   UNL     1       2.154   3.875  -7.220  0.00  0.00    +0.031 C 
ENDROOT
BRANCH   1   5
ATOM      4  C   UNL     1      -0.329   6.871  -4.475  0.00  0.00    -0.004 C 
ATOM      5  C   UNL     1       0.022   6.582  -5.702  0.00  0.00    -0.001 C 
BRANCH   4   7
ATOM      6  C   UNL     1      -2.008   8.739  -4.534  0.00  0.00    +0.031 C 
ATOM      7  C   UNL     1      -1.655   7.359  -4.086  0.00  0.00    -0.015 C 
ATOM      8  C   UNL     1      -2.371   6.823  -3.123  0.00  0.00    +0.082 C 
BRANCH   8   9
ATOM      9  C   UNL     1      -2.082   5.463  -2.730  0.00  0.00    +0.388 C 
ATOM     10  O   UNL     1      -1.235   5.284  -1.631  0.00  0.00    -0.241 OA
ATOM     11  O   UNL     1      -2.882   4.505  -2.952  0.00  0.00    -0.241 OA
ENDBRANCH   8   9
ENDBRANCH   4   7
ENDBRANCH   1   5
BRANCH   2  12
ATOM     12  C   UNL     1       2.362   6.374  -7.304  0.00  0.00    -0.005 C 
ATOM     13  C   UNL     1       2.312   6.930  -8.496  0.00  0.00    -0.005 C 
BRANCH  13  14
ATOM     14  C   UNL     1       2.462   6.034  -9.649  0.00  0.00    -0.031 C 
ATOM     15  C   UNL     1       3.858   5.923 -10.173  0.00  0.00    +0.018 C 
ATOM     16  C   UNL     1       4.440   7.331 -10.173  0.00  0.00    +0.004 C 
ATOM     17  C   UNL     1       4.729   5.087  -9.276  0.00  0.00    +0.004 C 
ATOM     18  C   UNL     1       3.913   5.371 -11.567  0.00  0.00    +0.004 C 
ATOM     19  C   UNL     1       2.790   5.939 -12.423  0.00  0.00    +0.005 C 
ATOM     20  C   UNL     1       1.500   5.387 -11.837  0.00  0.00    +0.022 C 
ATOM     21  C   UNL     1       1.397   5.904 -10.435  0.00  0.00    -0.048 C 
ATOM     22  C   UNL     1       0.142   6.666 -10.137  0.00  0.00    +0.026 C 
ENDBRANCH  13  14
ENDBRANCH   2  12
TORSDOF 5
ENDMDL
MODEL 6
REMARK VINA RESULT:      -6.7      1.605      2.016
REMARK  Name = 
REMARK  5 active torsions:
REMARK  status: ('A' for Active; 'I' for Inactive)
REMARK    1  A    between atoms: C_2  and  C_3
REMARK    2  A    between atoms: C_4  and  C_5
REMARK    3  A    between atoms: C_6  and  C_8
REMARK    4  A    between atoms: C_9  and  C_10
REMARK    5  A    between atoms: C_19  and  C_20
REMARK                            x       y       z     vdW  Elec       q    Type
REMARK                         _______ _______ _______ _____ _____    ______ ____
ROOT
ATOM      1  C   UNL     1       2.543   4.879 -10.119  0.00  0.00    -0.004 C 
ATOM      2  C   UNL     1       3.770   5.158  -9.694  0.00  0.00    -0.022 C 
ATOM      3  C   UNL     1       4.234   4.419  -8.485  0.00  0.00    +0.031 C 
ENDROOT
BRANCH   1   5
ATOM      4  C   UNL     1       0.797   5.265 -11.801  0.00  0.00    -0.004 C 
ATOM      5  C   UNL     1       1.816   5.669 -11.086  0.00  0.00    -0.001 C 
BRANCH   4   7
ATOM      6  C   UNL     1       1.006   4.063 -13.997  0.00  0.00    +0.031 C 
ATOM      7  C   UNL     1       0.731   5.334 -13.263  0.00  0.00    -0.015 C 
ATOM      8  C   UNL     1       0.789   6.459 -13.938  0.00  0.00    +0.082 C 
BRANCH   8   9
ATOM      9  C   UNL     1       0.458   7.687 -13.253  0.00  0.00    +0.388 C 
ATOM     10  O   UNL     1       0.766   8.885 -13.908  0.00  0.00    -0.241 OA
ATOM     11  O   UNL     1      -0.488   7.765 -12.412  0.00  0.00    -0.241 OA
ENDBRANCH   8   9
ENDBRANCH   4   7
ENDBRANCH   1   5
BRANCH   2  12
ATOM     12  C   UNL     1       4.181   6.564  -9.785  0.00  0.00    -0.005 C 
ATOM     13  C   UNL     1       4.766   6.922 -10.908  0.00  0.00    -0.005 C 
BRANCH  13  14
ATOM     14  C   UNL     1       5.878   6.082 -11.371  0.00  0.00    -0.031 C 
ATOM     15  C   UNL     1       7.209   6.438 -10.789  0.00  0.00    +0.018 C 
ATOM     16  C   UNL     1       7.299   7.959 -10.796  0.00  0.00    +0.004 C 
ATOM     17  C   UNL     1       7.331   5.996  -9.357  0.00  0.00    +0.004 C 
ATOM     18  C   UNL     1       8.355   5.876 -11.578  0.00  0.00    +0.004 C 
ATOM     19  C   UNL     1       8.091   5.982 -13.073  0.00  0.00    +0.005 C 
ATOM     20  C   UNL     1       6.928   5.045 -13.358  0.00  0.00    +0.022 C 
ATOM     21  C   UNL     1       5.752   5.557 -12.586  0.00  0.00    -0.048 C 
ATOM     22  C   UNL     1       4.537   5.849 -13.412  0.00  0.00    +0.026 C 
ENDBRANCH  13  14
ENDBRANCH   2  12
TORSDOF 5
ENDMDL
MODEL 7
REMARK VINA RESULT:      -6.3      6.694      9.303
REMARK  Name = 
REMARK  5 active torsions:
REMARK  status: ('A' for Active; 'I' for Inactive)
REMARK    1  A    between atoms: C_2  and  C_3
REMARK    2  A    between atoms: C_4  and  C_5
REMARK    3  A    between atoms: C_6  and  C_8
REMARK    4  A    between atoms: C_9  and  C_10
REMARK    5  A    between atoms: C_19  and  C_20
REMARK                            x       y       z     vdW  Elec       q    Type
REMARK                         _______ _______ _______ _____ _____    ______ ____
ROOT
ATOM      1  C   UNL     1       0.058   5.980  -3.709  0.00  0.00    -0.004 C 
ATOM      2  C   UNL     1      -0.034   5.848  -5.028  0.00  0.00    -0.022 C 
ATOM      3  C   UNL     1      -1.313   6.301  -5.648  0.00  0.00    +0.031 C 
ENDROOT
BRANCH   1   5
ATOM      4  C   UNL     1       1.961   5.984  -2.159  0.00  0.00    -0.004 C 
ATOM      5  C   UNL     1       1.080   5.360  -2.898  0.00  0.00    -0.001 C 
BRANCH   4   7
ATOM      6  C   UNL     1       3.879   4.820  -3.288  0.00  0.00    +0.031 C 
ATOM      7  C   UNL     1       3.411   5.796  -2.260  0.00  0.00    -0.015 C 
ATOM      8  C   UNL     1       4.255   6.148  -1.316  0.00  0.00    +0.082 C 
BRANCH   8   9
ATOM      9  C   UNL     1       3.834   7.143  -0.357  0.00  0.00    +0.388 C 
ATOM     10  O   UNL     1       3.896   6.791   0.995  0.00  0.00    -0.241 OA
ATOM     11  O   UNL     1       3.906   8.387  -0.591  0.00  0.00    -0.241 OA
ENDBRANCH   8   9
ENDBRANCH   4   7
ENDBRANCH   1   5
BRANCH   2  12
ATOM     12  C   UNL     1       0.564   4.637  -5.599  0.00  0.00    -0.005 C 
ATOM     13  C   UNL     1       1.669   4.811  -6.293  0.00  0.00    -0.005 C 
BRANCH  13  14
ATOM     14  C   UNL     1       1.641   5.849  -7.330  0.00  0.00    -0.031 C 
ATOM     15  C   UNL     1       1.381   5.340  -8.712  0.00  0.00    +0.018 C 
ATOM     16  C   UNL     1       2.205   4.069  -8.874  0.00  0.00    +0.004 C 
ATOM     17  C   UNL     1      -0.061   4.958  -8.906  0.00  0.00    +0.004 C 
ATOM     18  C   UNL     1       1.778   6.320  -9.775  0.00  0.00    +0.004 C 
ATOM     19  C   UNL     1       3.088   7.009  -9.420  0.00  0.00    +0.005 C 
ATOM     20  C   UNL     1       2.791   7.863  -8.198  0.00  0.00    +0.022 C 
ATOM     21  C   UNL     1       2.380   6.930  -7.100  0.00  0.00    -0.048 C 
ATOM     22  C   UNL     1       3.199   7.033  -5.849  0.00  0.00    +0.026 C 
ENDBRANCH  13  14
ENDBRANCH   2  12
TORSDOF 5
ENDMDL
MODEL 8
REMARK VINA RESULT:      -6.3      7.287      9.809
REMARK  Name = 
REMARK  5 active torsions:
REMARK  status: ('A' for Active; 'I' for Inactive)
REMARK    1  A    between atoms: C_2  and  C_3
REMARK    2  A    between atoms: C_4  and  C_5
REMARK    3  A    between atoms: C_6  and  C_8
REMARK    4  A    between atoms: C_9  and  C_10
REMARK    5  A    between atoms: C_19  and  C_20
REMARK                            x       y       z     vdW  Elec       q    Type
REMARK                         _______ _______ _______ _____ _____    ______ ____
ROOT
ATOM      1  C   UNL     1       3.707   6.328  -3.095  0.00  0.00    -0.004 C 
ATOM      2  C   UNL     1       3.662   5.878  -4.344  0.00  0.00    -0.022 C 
ATOM      3  C   UNL     1       4.179   4.497  -4.567  0.00  0.00    +0.031 C 
ENDROOT
BRANCH   1   5
ATOM      4  C   UNL     1       4.180   8.354  -1.794  0.00  0.00    -0.004 C 
ATOM      5  C   UNL     1       3.517   7.710  -2.720  0.00  0.00    -0.001 C 
BRANCH   4   7
ATOM      6  C   UNL     1       3.476  10.547  -0.791  0.00  0.00    +0.031 C 
ATOM      7  C   UNL     1       3.560   9.061  -0.670  0.00  0.00    -0.015 C 
ATOM      8  C   UNL     1       3.403   8.531   0.521  0.00  0.00    +0.082 C 
BRANCH   8   9
ATOM      9  C   UNL     1       3.414   7.091   0.637  0.00  0.00    +0.388 C 
ATOM     10  O   UNL     1       2.272   6.409   0.204  0.00  0.00    -0.241 OA
ATOM     11  O   UNL     1       4.485   6.414   0.612  0.00  0.00    -0.241 OA
ENDBRANCH   8   9
ENDBRANCH   4   7
ENDBRANCH   1   5
BRANCH   2  12
ATOM     12  C   UNL     1       3.968   6.856  -5.394  0.00  0.00    -0.005 C 
ATOM     13  C   UNL     1       2.958   7.218  -6.157  0.00  0.00    -0.005 C 
BRANCH  13  14
ATOM     14  C   UNL     1       2.156   6.139  -6.746  0.00  0.00    -0.031 C 
ATOM     15  C   UNL     1       2.560   5.749  -8.132  0.00  0.00    +0.018 C 
ATOM     16  C   UNL     1       2.840   7.042  -8.888  0.00  0.00    +0.004 C 
ATOM     17  C   UNL     1       3.834   4.950  -8.140  0.00  0.00    +0.004 C 
ATOM     18  C   UNL     1       1.492   4.982  -8.854  0.00  0.00    +0.004 C 
ATOM     19  C   UNL     1       0.115   5.562  -8.565  0.00  0.00    +0.005 C 
ATOM     20  C   UNL     1      -0.147   5.299  -7.091  0.00  0.00    +0.022 C 
ATOM     21  C   UNL     1       0.900   6.040  -6.319  0.00  0.00    -0.048 C 
ATOM     22  C   UNL     1       0.368   7.010  -5.309  0.00  0.00    +0.026 C 
ENDBRANCH  13  14
ENDBRANCH   2  12
TORSDOF 5
ENDMDL
MODEL 9
REMARK VINA RESULT:      -6.3      6.617      8.832
REMARK  Name = 
REMARK  5 active torsions:
REMARK  status: ('A' for Active; 'I' for Inactive)
REMARK    1  A    between atoms: C_2  and  C_3
REMARK    2  A    between atoms: C_4  and  C_5
REMARK    3  A    between atoms: C_6  and  C_8
REMARK    4  A    between atoms: C_9  and  C_10
REMARK    5  A    between atoms: C_19  and  C_20
REMARK                            x       y       z     vdW  Elec       q    Type
REMARK                         _______ _______ _______ _____ _____    ______ ____
ROOT
ATOM      1  C   UNL     1      -0.770   6.178  -4.943  0.00  0.00    -0.004 C 
ATOM      2  C   UNL     1      -0.643   5.652  -6.155  0.00  0.00    -0.022 C 
ATOM      3  C   UNL     1      -1.887   5.567  -6.972  0.00  0.00    +0.031 C 
ENDROOT
BRANCH   1   5
ATOM      4  C   UNL     1       0.206   5.312  -2.864  0.00  0.00    -0.004 C 
ATOM      5  C   UNL     1       0.236   6.098  -3.909  0.00  0.00    -0.001 C 
BRANCH   4   7
ATOM      6  C   UNL     1       1.694   5.720  -0.882  0.00  0.00    +0.031 C 
ATOM      7  C   UNL     1       0.326   5.771  -1.477  0.00  0.00    -0.015 C 
ATOM      8  C   UNL     1      -0.697   5.884  -0.661  0.00  0.00    +0.082 C 
BRANCH   8   9
ATOM      9  C   UNL     1      -2.019   6.004  -1.231  0.00  0.00    +0.388 C 
ATOM     10  O   UNL     1      -2.381   7.254  -1.744  0.00  0.00    -0.241 OA
ATOM     11  O   UNL     1      -2.633   5.018  -1.739  0.00  0.00    -0.241 OA
ENDBRANCH   8   9
ENDBRANCH   4   7
ENDBRANCH   1   5
BRANCH   2  12
ATOM     12  C   UNL     1       0.282   4.519  -6.273  0.00  0.00    -0.005 C 
ATOM     13  C   UNL     1       1.527   4.819  -6.579  0.00  0.00    -0.005 C 
BRANCH  13  14
ATOM     14  C   UNL     1       1.727   5.705  -7.732  0.00  0.00    -0.031 C 
ATOM     15  C   UNL     1       1.835   5.000  -9.047  0.00  0.00    +0.018 C 
ATOM     16  C   UNL     1       2.711   3.774  -8.817  0.00  0.00    +0.004 C 
ATOM     17  C   UNL     1       0.499   4.502  -9.527  0.00  0.00    +0.004 C 
ATOM     18  C   UNL     1       2.456   5.852 -10.113  0.00  0.00    +0.004 C 
ATOM     19  C   UNL     1       3.614   6.666  -9.555  0.00  0.00    +0.005 C 
ATOM     20  C   UNL     1       2.997   7.654  -8.579  0.00  0.00    +0.022 C 
ATOM     21  C   UNL     1       2.353   6.853  -7.490  0.00  0.00    -0.048 C 
ATOM     22  C   UNL     1       2.831   7.175  -6.107  0.00  0.00    +0.026 C 
ENDBRANCH  13  14
ENDBRANCH   2  12
TORSDOF 5
ENDMDL
