MODEL 1
REMARK VINA RESULT:      -4.8      0.000      0.000
REMARK  Name = 
REMARK  5 active torsions:
REMARK  status: ('A' for Active; 'I' for Inactive)
REMARK    1  A    between atoms: C_2  and  C_4
REMARK    2  A    between atoms: C_4  and  C_5
REMARK    3  A    between atoms: C_5  and  C_7
REMARK    4  A    between atoms: C_5  and  C_11
REMARK    5  A    between atoms: C_7  and  C_8
REMARK                            x       y       z     vdW  Elec       q    Type
REMARK                         _______ _______ _______ _____ _____    ______ ____
ROOT
ATOM      1  C   UNL     1       0.334   6.101  -5.983  0.00  0.00    +0.240 C 
ATOM      2  O   UNL     1       0.491   7.273  -5.275  0.00  0.00    -0.213 OA
ENDROOT
BRANCH   1   3
ATOM      3  C   UNL     1       0.976   4.967  -5.253  0.00  0.00    +0.393 C 
ATOM      4  O   UNL     1       1.223   3.811  -5.960  0.00  0.00    -0.243 OA
ATOM      5  O   UNL     1       0.927   5.034  -3.993  0.00  0.00    -0.243 OA
ENDBRANCH   1   3
BRANCH   1   6
ATOM      6  C   UNL     1       1.111   6.264  -7.281  0.00  0.00    +0.156 C 
BRANCH   6   8
ATOM      7  O   UNL     1       2.017   8.370  -7.854  0.00  0.00    -0.246 OA
ATOM      8  C   UNL     1       2.116   7.331  -7.134  0.00  0.00    +0.368 C 
ATOM      9  O   UNL     1       3.182   7.293  -6.260  0.00  0.00    -0.246 OA
ENDBRANCH   6   8
ENDBRANCH   1   6
BRANCH   1  10
ATOM     10  C   UNL     1      -1.081   5.782  -6.354  0.00  0.00    +0.156 C 
BRANCH  10  11
ATOM     11  C   UNL     1      -2.078   6.281  -5.389  0.00  0.00    +0.368 C 
ATOM     12  O   UNL     1      -2.596   5.362  -4.477  0.00  0.00    -0.246 OA
ATOM     13  O   UNL     1      -2.794   7.306  -5.596  0.00  0.00    -0.246 OA
ENDBRANCH  10  11
ENDBRANCH   1  10
TORSDOF 5
ENDMDL
MODEL 2
REMARK VINA RESULT:      -4.6      2.497      4.389
REMARK  Name = 
REMARK  5 active torsions:
REMARK  status: ('A' for Active; 'I' for Inactive)
REMARK    1  A    between atoms: C_2  and  C_4
REMARK    2  A    between atoms: C_4  and  C_5
REMARK    3  A    between atoms: C_5  and  C_7
REMARK    4  A    between atoms: C_5  and  C_11
REMARK    5  A    between atoms: C_7  and  C_8
REMARK                            x       y       z     vdW  Elec       q    Type
REMARK                         _______ _______ _______ _____ _____    ______ ____
ROOT
ATOM      1  C   UNL     1       1.975   4.983  -8.123  0.00  0.00    +0.240 C 
ATOM      2  O   UNL     1       2.353   3.830  -8.775  0.00  0.00    -0.213 OA
ENDROOT
BRANCH   1   3
ATOM      3  C   UNL     1       1.548   4.670  -6.727  0.00  0.00    +0.393 C 
ATOM      4  O   UNL     1       2.408   3.930  -5.946  0.00  0.00    -0.243 OA
ATOM      5  O   UNL     1       0.315   4.811  -6.490  0.00  0.00    -0.243 OA
ENDBRANCH   1   3
BRANCH   1   6
ATOM      6  C   UNL     1       0.739   5.509  -8.838  0.00  0.00    +0.156 C 
BRANCH   6   8
ATOM      7  O   UNL     1       0.023   4.263 -10.714  0.00  0.00    -0.246 OA
ATOM      8  C   UNL     1       0.800   5.160 -10.268  0.00  0.00    +0.368 C 
ATOM      9  O   UNL     1       1.653   5.739 -11.183  0.00  0.00    -0.246 OA
ENDBRANCH   6   8
ENDBRANCH   1   6
BRANCH   1  10
ATOM     10  C   UNL     1       2.998   6.078  -8.150  0.00  0.00    +0.156 C 
BRANCH  10  11
ATOM     11  C   UNL     1       2.670   7.221  -7.278  0.00  0.00    +0.368 C 
ATOM     12  O   UNL     1       2.107   8.343  -7.884  0.00  0.00    -0.246 OA
ATOM     13  O   UNL     1       3.238   7.430  -6.164  0.00  0.00    -0.246 OA
ENDBRANCH  10  11
ENDBRANCH   1  10
TORSDOF 5
ENDMDL
MODEL 3
REMARK VINA RESULT:      -4.5      1.835      2.845
REMARK  Name = 
REMARK  5 active torsions:
REMARK  status: ('A' for Active; 'I' for Inactive)
REMARK    1  A    between atoms: C_2  and  C_4
REMARK    2  A    between atoms: C_4  and  C_5
REMARK    3  A    between atoms: C_5  and  C_7
REMARK    4  A    between atoms: C_5  and  C_11
REMARK    5  A    between atoms: C_7  and  C_8
REMARK                            x       y       z     vdW  Elec       q    Type
REMARK                         _______ _______ _______ _____ _____    ______ ____
ROOT
ATOM      1  C   UNL     1      -0.524   5.809  -5.213  0.00  0.00    +0.240 C 
ATOM      2  O   UNL     1       0.304   4.750  -4.910  0.00  0.00    -0.213 OA
ENDROOT
BRANCH   1   3
ATOM      3  C   UNL     1      -1.346   5.493  -6.419  0.00  0.00    +0.393 C 
ATOM      4  O   UNL     1      -0.685   5.328  -7.617  0.00  0.00    -0.243 OA
ATOM      5  O   UNL     1      -2.581   5.735  -6.316  0.00  0.00    -0.243 OA
ENDBRANCH   1   3
BRANCH   1   6
ATOM      6  C   UNL     1       0.374   6.973  -5.603  0.00  0.00    +0.156 C 
BRANCH   6   8
ATOM      7  O   UNL     1       2.102   6.968  -3.992  0.00  0.00    -0.246 OA
ATOM      8  C   UNL     1       1.759   6.700  -5.183  0.00  0.00    +0.368 C 
ATOM      9  O   UNL     1       2.738   6.168  -5.996  0.00  0.00    -0.246 OA
ENDBRANCH   6   8
ENDBRANCH   1   6
BRANCH   1  10
ATOM     10  C   UNL     1      -1.381   6.276  -4.076  0.00  0.00    +0.156 C 
BRANCH  10  11
ATOM     11  C   UNL     1      -1.564   5.268  -3.015  0.00  0.00    +0.368 C 
ATOM     12  O   UNL     1      -2.829   4.693  -2.895  0.00  0.00    -0.246 OA
ATOM     13  O   UNL     1      -0.839   5.212  -1.976  0.00  0.00    -0.246 OA
ENDBRANCH  10  11
ENDBRANCH   1  10
TORSDOF 5
ENDMDL
MODEL 4
REMARK VINA RESULT:      -4.4      2.051      4.599
REMARK  Name = 
REMARK  5 active torsions:
REMARK  status: ('A' for Active; 'I' for Inactive)
REMARK    1  A    between atoms: C_2  and  C_4
REMARK    2  A    between atoms: C_4  and  C_5
REMARK    3  A    between atoms: C_5  and  C_7
REMARK    4  A    between atoms: C_5  and  C_11
REMARK    5  A    between atoms: C_7  and  C_8
REMARK                            x       y       z     vdW  Elec       q    Type
REMARK                         _______ _______ _______ _____ _____    ______ ____
ROOT
ATOM      1  C   UNL     1      -0.887   6.101  -4.962  0.00  0.00    +0.240 C 
ATOM      2  O   UNL     1      -0.815   7.473  -4.847  0.00  0.00    -0.213 OA
ENDROOT
BRANCH   1   3
ATOM      3  C   UNL     1      -0.508   5.679  -6.344  0.00  0.00    +0.393 C 
ATOM      4  O   UNL     1       0.592   6.279  -6.916  0.00  0.00    -0.243 OA
ATOM      5  O   UNL     1      -1.405   5.072  -6.993  0.00  0.00    -0.243 OA
ENDBRANCH   1   3
BRANCH   1   6
ATOM      6  C   UNL     1      -2.350   5.721  -4.788  0.00  0.00    +0.156 C 
BRANCH   6   8
ATOM      7  O   UNL     1      -2.876   4.660  -2.744  0.00  0.00    -0.246 OA
ATOM      8  C   UNL     1      -2.711   5.756  -3.360  0.00  0.00    +0.368 C 
ATOM      9  O   UNL     1      -2.890   6.906  -2.621  0.00  0.00    -0.246 OA
ENDBRANCH   6   8
ENDBRANCH   1   6
BRANCH   1  10
ATOM     10  C   UNL     1      -0.110   5.347  -3.928  0.00  0.00    +0.156 C 
BRANCH  10  11
ATOM     11  C   UNL     1       0.923   6.154  -3.253  0.00  0.00    +0.368 C 
ATOM     12  O   UNL     1       2.149   6.293  -3.903  0.00  0.00    -0.246 OA
ATOM     13  O   UNL     1       0.946   6.346  -2.000  0.00  0.00    -0.246 OA
ENDBRANCH  10  11
ENDBRANCH   1  10
TORSDOF 5
ENDMDL
MODEL 5
REMARK VINA RESULT:      -4.4      2.627      4.819
REMARK  Name = 
REMARK  5 active torsions:
REMARK  status: ('A' for Active; 'I' for Inactive)
REMARK    1  A    between atoms: C_2  and  C_4
REMARK    2  A    between atoms: C_4  and  C_5
REMARK    3  A    between atoms: C_5  and  C_7
REMARK    4  A    between atoms: C_5  and  C_11
REMARK    5  A    between atoms: C_7  and  C_8
REMARK                            x       y       z     vdW  Elec       q    Type
REMARK                         _______ _______ _______ _____ _____    ______ ____
ROOT
ATOM      1  C   UNL     1       1.586   5.971  -8.418  0.00  0.00    +0.240 C 
ATOM      2  O   UNL     1       2.286   4.786  -8.486  0.00  0.00    -0.213 OA
ENDROOT
BRANCH   1   3
ATOM      3  C   UNL     1       2.530   7.127  -8.382  0.00  0.00    +0.393 C 
ATOM      4  O   UNL     1       2.083   8.301  -7.815  0.00  0.00    -0.243 OA
ATOM      5  O   UNL     1       3.519   7.047  -9.163  0.00  0.00    -0.243 OA
ENDBRANCH   1   3
BRANCH   1   6
ATOM      6  C   UNL     1       0.857   5.977  -7.082  0.00  0.00    +0.156 C 
BRANCH   6   8
ATOM      7  O   UNL     1       1.047   3.939  -5.902  0.00  0.00    -0.246 OA
ATOM      8  C   UNL     1       1.543   5.082  -6.134  0.00  0.00    +0.368 C 
ATOM      9  O   UNL     1       2.705   5.393  -5.459  0.00  0.00    -0.246 OA
ENDBRANCH   6   8
ENDBRANCH   1   6
BRANCH   1  10
ATOM     10  C   UNL     1       0.549   6.145  -9.485  0.00  0.00    +0.156 C 
BRANCH  10  11
ATOM     11  C   UNL     1       0.677   5.190 -10.601  0.00  0.00    +0.368 C 
ATOM     12  O   UNL     1       1.454   5.582 -11.690  0.00  0.00    -0.246 OA
ATOM     13  O   UNL     1      -0.175   4.281 -10.839  0.00  0.00    -0.246 OA
ENDBRANCH  10  11
ENDBRANCH   1  10
TORSDOF 5
ENDMDL
MODEL 6
REMARK VINA RESULT:      -4.4      6.583      8.018
REMARK  Name = 
REMARK  5 active torsions:
REMARK  status: ('A' for Active; 'I' for Inactive)
REMARK    1  A    between atoms: C_2  and  C_4
REMARK    2  A    between atoms: C_4  and  C_5
REMARK    3  A    between atoms: C_5  and  C_7
REMARK    4  A    between atoms: C_5  and  C_11
REMARK    5  A    between atoms: C_7  and  C_8
REMARK                            x       y       z     vdW  Elec       q    Type
REMARK                         _______ _______ _______ _____ _____    ______ ____
ROOT
ATOM      1  C   UNL     1       5.868   6.371 -10.983  0.00  0.00    +0.240 C 
ATOM      2  O   UNL     1       5.265   7.600 -10.825  0.00  0.00    -0.213 OA
ENDROOT
BRANCH   1   3
ATOM      3  C   UNL     1       6.308   5.839  -9.658  0.00  0.00    +0.393 C 
ATOM      4  O   UNL     1       7.653   5.598  -9.482  0.00  0.00    -0.243 OA
ATOM      5  O   UNL     1       5.396   5.339  -8.942  0.00  0.00    -0.243 OA
ENDBRANCH   1   3
BRANCH   1   6
ATOM      6  C   UNL     1       7.136   6.602 -11.790  0.00  0.00    +0.156 C 
BRANCH   6   8
ATOM      7  O   UNL     1       7.785   4.500 -12.652  0.00  0.00    -0.246 OA
ATOM      8  C   UNL     1       7.225   5.615 -12.879  0.00  0.00    +0.368 C 
ATOM      9  O   UNL     1       6.740   5.805 -14.156  0.00  0.00    -0.246 OA
ENDBRANCH   6   8
ENDBRANCH   1   6
BRANCH   1  10
ATOM     10  C   UNL     1       5.047   5.365 -11.730  0.00  0.00    +0.156 C 
BRANCH  10  11
ATOM     11  C   UNL     1       3.662   5.800 -11.988  0.00  0.00    +0.368 C 
ATOM     12  O   UNL     1       2.718   5.539 -10.996  0.00  0.00    -0.246 OA
ATOM     13  O   UNL     1       3.194   5.975 -13.153  0.00  0.00    -0.246 OA
ENDBRANCH  10  11
ENDBRANCH   1  10
TORSDOF 5
ENDMDL
MODEL 7
REMARK VINA RESULT:      -4.4      2.137      3.051
REMARK  Name = 
REMARK  5 active torsions:
REMARK  status: ('A' for Active; 'I' for Inactive)
REMARK    1  A    between atoms: C_2  and  C_4
REMARK    2  A    between atoms: C_4  and  C_5
REMARK    3  A    between atoms: C_5  and  C_7
REMARK    4  A    between atoms: C_5  and  C_11
REMARK    5  A    between atoms: C_7  and  C_8
REMARK                            x       y       z     vdW  Elec       q    Type
REMARK                         _______ _______ _______ _____ _____    ______ ____
ROOT
ATOM      1  C   UNL     1       1.827   4.939  -7.564  0.00  0.00    +0.240 C 
ATOM      2  O   UNL     1       1.776   4.053  -6.510  0.00  0.00    -0.213 OA
ENDROOT
BRANCH   1   3
ATOM      3  C   UNL     1       2.304   4.246  -8.798  0.00  0.00    +0.393 C 
ATOM      4  O   UNL     1       3.635   3.895  -8.860  0.00  0.00    -0.243 OA
ATOM      5  O   UNL     1       1.546   4.342  -9.804  0.00  0.00    -0.243 OA
ENDBRANCH   1   3
BRANCH   1   6
ATOM      6  C   UNL     1       2.889   5.973  -7.220  0.00  0.00    +0.156 C 
BRANCH   6   8
ATOM      7  O   UNL     1       2.160   8.165  -7.716  0.00  0.00    -0.246 OA
ATOM      8  C   UNL     1       2.772   7.131  -8.122  0.00  0.00    +0.368 C 
ATOM      9  O   UNL     1       3.281   7.187  -9.402  0.00  0.00    -0.246 OA
ENDBRANCH   6   8
ENDBRANCH   1   6
BRANCH   1  10
ATOM     10  C   UNL     1       0.552   5.684  -7.814  0.00  0.00    +0.156 C 
BRANCH  10  11
ATOM     11  C   UNL     1      -0.380   5.670  -6.671  0.00  0.00    +0.368 C 
ATOM     12  O   UNL     1      -1.594   5.008  -6.848  0.00  0.00    -0.246 OA
ATOM     13  O   UNL     1      -0.363   6.541  -5.750  0.00  0.00    -0.246 OA
ENDBRANCH  10  11
ENDBRANCH   1  10
TORSDOF 5
ENDMDL
MODEL 8
REMARK VINA RESULT:      -4.3      2.746      4.328
REMARK  Name = 
REMARK  5 active torsions:
REMARK  status: ('A' for Active; 'I' for Inactive)
REMARK    1  A    between atoms: C_2  and  C_4
REMARK    2  A    between atoms: C_4  and  C_5
REMARK    3  A    between atoms: C_5  and  C_7
REMARK    4  A    between atoms: C_5  and  C_11
REMARK    5  A    between atoms: C_7  and  C_8
REMARK                            x       y       z     vdW  Elec       q    Type
REMARK                         _______ _______ _______ _____ _____    ______ ____
ROOT
ATOM      1  C   UNL     1       3.319   6.156  -5.918  0.00  0.00    +0.240 C 
ATOM      2  O   UNL     1       4.216   6.025  -6.956  0.00  0.00    -0.213 OA
ENDROOT
BRANCH   1   3
ATOM      3  C   UNL     1       3.949   6.892  -4.781  0.00  0.00    +0.393 C 
ATOM      4  O   UNL     1       5.259   6.593  -4.475  0.00  0.00    -0.243 OA
ATOM      5  O   UNL     1       3.147   7.466  -3.992  0.00  0.00    -0.243 OA
ENDBRANCH   1   3
BRANCH   1   6
ATOM      6  C   UNL     1       3.029   4.753  -5.407  0.00  0.00    +0.156 C 
BRANCH   6   8
ATOM      7  O   UNL     1       0.939   3.805  -5.970  0.00  0.00    -0.246 OA
ATOM      8  C   UNL     1       2.127   4.055  -6.339  0.00  0.00    +0.368 C 
ATOM      9  O   UNL     1       2.473   3.640  -7.607  0.00  0.00    -0.246 OA
ENDBRANCH   6   8
ENDBRANCH   1   6
BRANCH   1  10
ATOM     10  C   UNL     1       2.005   6.764  -6.302  0.00  0.00    +0.156 C 
BRANCH  10  11
ATOM     11  C   UNL     1       1.952   7.235  -7.698  0.00  0.00    +0.368 C 
ATOM     12  O   UNL     1       2.162   8.596  -7.920  0.00  0.00    -0.246 OA
ATOM     13  O   UNL     1       1.322   6.625  -8.614  0.00  0.00    -0.246 OA
ENDBRANCH  10  11
ENDBRANCH   1  10
TORSDOF 5
ENDMDL
MODEL 9
REMARK VINA RESULT:      -4.3      3.545      5.165
REMARK  Name = 
REMARK  5 active torsions:
REMARK  status: ('A' for Active; 'I' for Inactive)
REMARK    1  A    between atoms: C_2  and  C_4
REMARK    2  A    between atoms: C_4  and  C_5
REMARK    3  A    between atoms: C_5  and  C_7
REMARK    4  A    between atoms: C_5  and  C_11
REMARK    5  A    between atoms: C_7  and  C_8
REMARK                            x       y       z     vdW  Elec       q    Type
REMARK                         _______ _______ _______ _____ _____    ______ ____
ROOT
ATOM      1  C   UNL     1       2.633   5.450  -9.122  0.00  0.00    +0.240 C 
ATOM      2  O   UNL     1       3.243   4.226  -8.950  0.00  0.00    -0.213 OA
ENDROOT
BRANCH   1   3
ATOM      3  C   UNL     1       1.646   5.381 -10.241  0.00  0.00    +0.393 C 
ATOM      4  O   UNL     1       1.359   6.550 -10.912  0.00  0.00    -0.243 OA
ATOM      5  O   UNL     1       0.913   4.353 -10.258  0.00  0.00    -0.243 OA
ENDBRANCH   1   3
BRANCH   1   6
ATOM      6  C   UNL     1       3.714   6.422  -9.569  0.00  0.00    +0.156 C 
BRANCH   6   8
ATOM      7  O   UNL     1       5.877   5.470  -9.562  0.00  0.00    -0.246 OA
ATOM      8  C   UNL     1       4.814   5.686 -10.217  0.00  0.00    +0.368 C 
ATOM      9  O   UNL     1       4.783   5.202 -11.508  0.00  0.00    -0.246 OA
ENDBRANCH   6   8
ENDBRANCH   1   6
BRANCH   1  10
ATOM     10  C   UNL     1       2.016   6.018  -7.882  0.00  0.00    +0.156 C 
BRANCH  10  11
ATOM     11  C   UNL     1       2.562   7.331  -7.491  0.00  0.00    +0.368 C 
ATOM     12  O   UNL     1       3.309   7.386  -6.315  0.00  0.00    -0.246 OA
ATOM     13  O   UNL     1       2.062   8.432  -7.872  0.00  0.00    -0.246 OA
ENDBRANCH  10  11
ENDBRANCH   1  10
TORSDOF 5
ENDMDL
