MODEL 1
REMARK VINA RESULT:      -6.6      0.000      0.000
REMARK  Name = 
REMARK  5 active torsions:
REMARK  status: ('A' for Active; 'I' for Inactive)
REMARK    1  A    between atoms: C_2  and  C_3
REMARK    2  A    between atoms: C_3  and  C_4
REMARK    3  A    between atoms: C_4  and  C_5
REMARK    4  A    between atoms: C_5  and  C_7
REMARK    5  A    between atoms: C_8  and  C_9
REMARK                            x       y       z     vdW  Elec       q    Type
REMARK                         _______ _______ _______ _____ _____    ______ ____
ROOT
ATOM      1  C   UNL     1       2.715   5.928  -8.370  0.00  0.00    +0.155 C 
ATOM      2  C   UNL     1       1.904   4.912  -7.747  0.00  0.00    +0.241 C 
ATOM      3  O   UNL     1       2.382   3.786  -7.403  0.00  0.00    -0.274 OA
ATOM      4  N   UNL     1       1.017   5.504  -6.779  0.00  0.00    -0.210 N 
ATOM      5  C   UNL     1       0.027   4.664  -6.124  0.00  0.00    +0.124 C 
ATOM      6  C   UNL     1       1.241   6.831  -6.265  0.00  0.00    +0.336 C 
ATOM      7  O   UNL     1       0.398   7.440  -5.577  0.00  0.00    -0.250 OA
ATOM      8  N   UNL     1       2.622   7.220  -6.389  0.00  0.00    -0.127 NA
ATOM      9  C   UNL     1       3.506   6.543  -7.314  0.00  0.00    +0.258 C 
ATOM     10  O   UNL     1       4.495   6.017  -6.712  0.00  0.00    -0.272 OA
ENDROOT
BRANCH   1  11
ATOM     11  C   UNL     1       3.621   5.380  -9.583  0.00  0.00    +0.081 C 
ATOM     12  C   UNL     1       4.950   5.130  -8.644  0.00  0.00    +0.015 C 
BRANCH  11  13
ATOM     13  C   UNL     1       4.135   6.812 -10.054  0.00  0.00    -0.091 C 
ATOM     14  C   UNL     1       5.111   7.127 -10.720  0.00  0.00    -0.091 C 
BRANCH  14  15
ATOM     15  C   UNL     1       6.306   7.794 -11.257  0.00  0.00    +0.076 C 
ATOM     16  C   UNL     1       7.521   7.146 -10.646  0.00  0.00    +0.015 C 
ENDBRANCH  14  15
ENDBRANCH  11  13
ENDBRANCH   1  11
BRANCH   1  17
ATOM     17  C   UNL     1       1.878   6.983  -9.046  0.00  0.00    +0.044 C 
BRANCH  17  19
ATOM     18  C   UNL     1       0.264   6.827 -10.756  0.00  0.00    -0.005 C 
ATOM     19  C   UNL     1       0.836   6.444  -9.939  0.00  0.00    -0.025 C 
ENDBRANCH  17  19
ENDBRANCH   1  17
TORSDOF 5
ENDMDL
MODEL 2
REMARK VINA RESULT:      -6.4      1.719      3.211
REMARK  Name = 
REMARK  5 active torsions:
REMARK  status: ('A' for Active; 'I' for Inactive)
REMARK    1  A    between atoms: C_2  and  C_3
REMARK    2  A    between atoms: C_3  and  C_4
REMARK    3  A    between atoms: C_4  and  C_5
REMARK    4  A    between atoms: C_5  and  C_7
REMARK    5  A    between atoms: C_8  and  C_9
REMARK                            x       y       z     vdW  Elec       q    Type
REMARK                         _______ _______ _______ _____ _____    ______ ____
ROOT
ATOM      1  C   UNL     1       2.943   5.905  -9.146  0.00  0.00    +0.155 C 
ATOM      2  C   UNL     1       3.058   6.881  -8.092  0.00  0.00    +0.241 C 
ATOM      3  O   UNL     1       2.450   7.995  -8.137  0.00  0.00    -0.274 OA
ATOM      4  N   UNL     1       3.021   6.233  -6.806  0.00  0.00    -0.210 N 
ATOM      5  C   UNL     1       3.244   7.030  -5.609  0.00  0.00    +0.124 C 
ATOM      6  C   UNL     1       2.531   4.887  -6.654  0.00  0.00    +0.336 C 
ATOM      7  O   UNL     1       2.661   4.236  -5.599  0.00  0.00    -0.250 OA
ATOM      8  N   UNL     1       1.646   4.522  -7.729  0.00  0.00    -0.127 NA
ATOM      9  C   UNL     1       1.653   5.252  -8.979  0.00  0.00    +0.258 C 
ATOM     10  O   UNL     1       0.515   5.763  -9.226  0.00  0.00    -0.272 OA
ENDROOT
BRANCH   1  11
ATOM     11  C   UNL     1       3.139   6.519 -10.622  0.00  0.00    +0.081 C 
ATOM     12  C   UNL     1       3.950   5.208 -11.198  0.00  0.00    +0.015 C 
BRANCH  11  13
ATOM     13  C   UNL     1       4.488   7.297 -10.289  0.00  0.00    -0.091 C 
ATOM     14  C   UNL     1       5.429   7.601 -11.009  0.00  0.00    -0.091 C 
BRANCH  14  15
ATOM     15  C   UNL     1       6.767   7.859 -11.561  0.00  0.00    +0.076 C 
ATOM     16  C   UNL     1       7.559   6.579 -11.490  0.00  0.00    +0.015 C 
ENDBRANCH  14  15
ENDBRANCH  11  13
ENDBRANCH   1  11
BRANCH   1  17
ATOM     17  C   UNL     1       4.038   4.871  -9.081  0.00  0.00    +0.044 C 
BRANCH  17  19
ATOM     18  C   UNL     1       6.253   5.037  -8.295  0.00  0.00    -0.005 C 
ATOM     19  C   UNL     1       5.215   5.289  -8.298  0.00  0.00    -0.025 C 
ENDBRANCH  17  19
ENDBRANCH   1  17
TORSDOF 5
ENDMDL
MODEL 3
REMARK VINA RESULT:      -6.3      2.318      5.788
REMARK  Name = 
REMARK  5 active torsions:
REMARK  status: ('A' for Active; 'I' for Inactive)
REMARK    1  A    between atoms: C_2  and  C_3
REMARK    2  A    between atoms: C_3  and  C_4
REMARK    3  A    between atoms: C_4  and  C_5
REMARK    4  A    between atoms: C_5  and  C_7
REMARK    5  A    between atoms: C_8  and  C_9
REMARK                            x       y       z     vdW  Elec       q    Type
REMARK                         _______ _______ _______ _____ _____    ______ ____
ROOT
ATOM      1  C   UNL     1       1.828   5.917  -7.005  0.00  0.00    +0.155 C 
ATOM      2  C   UNL     1       2.732   4.885  -7.448  0.00  0.00    +0.241 C 
ATOM      3  O   UNL     1       2.355   3.683  -7.606  0.00  0.00    -0.274 OA
ATOM      4  N   UNL     1       3.587   5.385  -8.494  0.00  0.00    -0.210 N 
ATOM      5  C   UNL     1       4.655   4.535  -8.997  0.00  0.00    +0.124 C 
ATOM      6  C   UNL     1       3.265   6.587  -9.219  0.00  0.00    +0.336 C 
ATOM      7  O   UNL     1       4.068   7.145  -9.992  0.00  0.00    -0.250 OA
ATOM      8  N   UNL     1       1.854   6.873  -9.170  0.00  0.00    -0.127 NA
ATOM      9  C   UNL     1       1.011   6.284  -8.152  0.00  0.00    +0.258 C 
ATOM     10  O   UNL     1       0.081   5.585  -8.665  0.00  0.00    -0.272 OA
ENDROOT
BRANCH   1  11
ATOM     11  C   UNL     1       0.946   5.500  -5.724  0.00  0.00    +0.081 C 
ATOM     12  C   UNL     1      -0.369   5.065  -6.613  0.00  0.00    +0.015 C 
BRANCH  11  13
ATOM     13  C   UNL     1       0.368   6.958  -5.449  0.00  0.00    -0.091 C 
ATOM     14  C   UNL     1      -0.662   7.313  -4.893  0.00  0.00    -0.091 C 
BRANCH  14  15
ATOM     15  C   UNL     1      -1.907   7.998  -4.519  0.00  0.00    +0.076 C 
ATOM     16  C   UNL     1      -2.709   7.071  -3.644  0.00  0.00    +0.015 C 
ENDBRANCH  14  15
ENDBRANCH  11  13
ENDBRANCH   1  11
BRANCH   1  17
ATOM     17  C   UNL     1       2.562   7.135  -6.505  0.00  0.00    +0.044 C 
BRANCH  17  19
ATOM     18  C   UNL     1       4.138   7.270  -4.758  0.00  0.00    -0.005 C 
ATOM     19  C   UNL     1       3.711   6.830  -5.633  0.00  0.00    -0.025 C 
ENDBRANCH  17  19
ENDBRANCH   1  17
TORSDOF 5
ENDMDL
MODEL 4
REMARK VINA RESULT:      -6.3      2.686      5.820
REMARK  Name = 
REMARK  5 active torsions:
REMARK  status: ('A' for Active; 'I' for Inactive)
REMARK    1  A    between atoms: C_2  and  C_3
REMARK    2  A    between atoms: C_3  and  C_4
REMARK    3  A    between atoms: C_4  and  C_5
REMARK    4  A    between atoms: C_5  and  C_7
REMARK    5  A    between atoms: C_8  and  C_9
REMARK                            x       y       z     vdW  Elec       q    Type
REMARK                         _______ _______ _______ _____ _____    ______ ____
ROOT
ATOM      1  C   UNL     1       1.552   5.935  -6.079  0.00  0.00    +0.155 C 
ATOM      2  C   UNL     1       1.480   6.833  -7.204  0.00  0.00    +0.241 C 
ATOM      3  O   UNL     1       2.123   7.928  -7.234  0.00  0.00    -0.274 OA
ATOM      4  N   UNL     1       1.509   6.091  -8.438  0.00  0.00    -0.210 N 
ATOM      5  C   UNL     1       1.324   6.803  -9.693  0.00  0.00    +0.124 C 
ATOM      6  C   UNL     1       1.957   4.723  -8.483  0.00  0.00    +0.336 C 
ATOM      7  O   UNL     1       1.817   4.000  -9.489  0.00  0.00    -0.250 OA
ATOM      8  N   UNL     1       2.819   4.411  -7.373  0.00  0.00    -0.127 NA
ATOM      9  C   UNL     1       2.822   5.232  -6.181  0.00  0.00    +0.258 C 
ATOM     10  O   UNL     1       3.973   5.723  -5.958  0.00  0.00    -0.272 OA
ENDROOT
BRANCH   1  11
ATOM     11  C   UNL     1       1.361   6.664  -4.655  0.00  0.00    +0.081 C 
ATOM     12  C   UNL     1       0.794   5.316  -3.899  0.00  0.00    +0.015 C 
BRANCH  11  13
ATOM     13  C   UNL     1      -0.108   7.202  -4.952  0.00  0.00    -0.091 C 
ATOM     14  C   UNL     1      -1.054   7.390  -4.199  0.00  0.00    -0.091 C 
BRANCH  14  15
ATOM     15  C   UNL     1      -2.390   7.460  -3.592  0.00  0.00    +0.076 C 
ATOM     16  C   UNL     1      -2.940   6.060  -3.500  0.00  0.00    +0.015 C 
ENDBRANCH  14  15
ENDBRANCH  11  13
ENDBRANCH   1  11
BRANCH   1  17
ATOM     17  C   UNL     1       0.425   4.934  -6.081  0.00  0.00    +0.044 C 
BRANCH  17  19
ATOM     18  C   UNL     1      -1.745   5.060  -6.990  0.00  0.00    -0.005 C 
ATOM     19  C   UNL     1      -0.706   5.303  -6.952  0.00  0.00    -0.025 C 
ENDBRANCH  17  19
ENDBRANCH   1  17
TORSDOF 5
ENDMDL
MODEL 5
REMARK VINA RESULT:      -6.2      2.436      3.525
REMARK  Name = 
REMARK  5 active torsions:
REMARK  status: ('A' for Active; 'I' for Inactive)
REMARK    1  A    between atoms: C_2  and  C_3
REMARK    2  A    between atoms: C_3  and  C_4
REMARK    3  A    between atoms: C_4  and  C_5
REMARK    4  A    between atoms: C_5  and  C_7
REMARK    5  A    between atoms: C_8  and  C_9
REMARK                            x       y       z     vdW  Elec       q    Type
REMARK                         _______ _______ _______ _____ _____    ______ ____
ROOT
ATOM      1  C   UNL     1       1.469   5.804  -8.122  0.00  0.00    +0.155 C 
ATOM      2  C   UNL     1       2.188   4.811  -7.363  0.00  0.00    +0.241 C 
ATOM      3  O   UNL     1       3.025   4.025  -7.907  0.00  0.00    -0.274 OA
ATOM      4  N   UNL     1       2.616   5.359  -6.102  0.00  0.00    -0.210 N 
ATOM      5  C   UNL     1       3.255   4.482  -5.134  0.00  0.00    +0.124 C 
ATOM      6  C   UNL     1       2.654   6.780  -5.873  0.00  0.00    +0.336 C 
ATOM      7  O   UNL     1       2.836   7.278  -4.744  0.00  0.00    -0.250 OA
ATOM      8  N   UNL     1       2.755   7.513  -7.109  0.00  0.00    -0.127 NA
ATOM      9  C   UNL     1       2.394   6.899  -8.369  0.00  0.00    +0.258 C 
ATOM     10  O   UNL     1       3.376   6.885  -9.177  0.00  0.00    -0.272 OA
ENDROOT
BRANCH   1  11
ATOM     11  C   UNL     1       0.809   5.233  -9.475  0.00  0.00    +0.081 C 
ATOM     12  C   UNL     1       2.199   5.343 -10.349  0.00  0.00    +0.015 C 
BRANCH  11  13
ATOM     13  C   UNL     1       0.283   6.642 -10.000  0.00  0.00    -0.091 C 
ATOM     14  C   UNL     1      -0.061   6.995 -11.119  0.00  0.00    -0.091 C 
BRANCH  14  15
ATOM     15  C   UNL     1      -0.278   7.744 -12.365  0.00  0.00    +0.076 C 
ATOM     16  C   UNL     1       0.763   7.307 -13.363  0.00  0.00    +0.015 C 
ENDBRANCH  14  15
ENDBRANCH  11  13
ENDBRANCH   1  11
BRANCH   1  17
ATOM     17  C   UNL     1       0.267   6.325  -7.375  0.00  0.00    +0.044 C 
BRANCH  17  19
ATOM     18  C   UNL     1      -1.701   5.290  -6.596  0.00  0.00    -0.005 C 
ATOM     19  C   UNL     1      -0.768   5.307  -7.115  0.00  0.00    -0.025 C 
ENDBRANCH  17  19
ENDBRANCH   1  17
TORSDOF 5
ENDMDL
MODEL 6
REMARK VINA RESULT:      -6.1      1.966      3.298
REMARK  Name = 
REMARK  5 active torsions:
REMARK  status: ('A' for Active; 'I' for Inactive)
REMARK    1  A    between atoms: C_2  and  C_3
REMARK    2  A    between atoms: C_3  and  C_4
REMARK    3  A    between atoms: C_4  and  C_5
REMARK    4  A    between atoms: C_5  and  C_7
REMARK    5  A    between atoms: C_8  and  C_9
REMARK                            x       y       z     vdW  Elec       q    Type
REMARK                         _______ _______ _______ _____ _____    ______ ____
ROOT
ATOM      1  C   UNL     1       3.437   5.925  -8.463  0.00  0.00    +0.155 C 
ATOM      2  C   UNL     1       2.328   6.671  -7.921  0.00  0.00    +0.241 C 
ATOM      3  O   UNL     1       1.599   7.415  -8.648  0.00  0.00    -0.274 OA
ATOM      4  N   UNL     1       1.601   5.868  -6.972  0.00  0.00    -0.210 N 
ATOM      5  C   UNL     1       0.515   6.476  -6.219  0.00  0.00    +0.124 C 
ATOM      6  C   UNL     1       1.753   4.436  -6.925  0.00  0.00    +0.336 C 
ATOM      7  O   UNL     1       1.289   3.738  -6.002  0.00  0.00    -0.250 OA
ATOM      8  N   UNL     1       2.223   3.913  -8.181  0.00  0.00    -0.127 NA
ATOM      9  C   UNL     1       2.875   4.771  -9.148  0.00  0.00    +0.258 C 
ATOM     10  O   UNL     1       2.248   4.785 -10.254  0.00  0.00    -0.272 OA
ENDROOT
BRANCH   1  11
ATOM     11  C   UNL     1       4.403   6.797  -9.410  0.00  0.00    +0.081 C 
ATOM     12  C   UNL     1       3.760   6.221 -10.811  0.00  0.00    +0.015 C 
BRANCH  11  13
ATOM     13  C   UNL     1       5.593   5.739  -9.437  0.00  0.00    -0.091 C 
ATOM     14  C   UNL     1       6.703   5.804  -9.946  0.00  0.00    -0.091 C 
BRANCH  14  15
ATOM     15  C   UNL     1       7.958   5.511 -10.654  0.00  0.00    +0.076 C 
ATOM     16  C   UNL     1       7.625   5.196 -12.089  0.00  0.00    +0.015 C 
ENDBRANCH  14  15
ENDBRANCH  11  13
ENDBRANCH   1  11
BRANCH   1  17
ATOM     17  C   UNL     1       4.381   5.456  -7.386  0.00  0.00    +0.044 C 
BRANCH  17  19
ATOM     18  C   UNL     1       4.711   6.309  -5.215  0.00  0.00    -0.005 C 
ATOM     19  C   UNL     1       4.532   6.400  -6.264  0.00  0.00    -0.025 C 
ENDBRANCH  17  19
ENDBRANCH   1  17
TORSDOF 5
ENDMDL
MODEL 7
REMARK VINA RESULT:      -6.1      2.585      5.772
REMARK  Name = 
REMARK  5 active torsions:
REMARK  status: ('A' for Active; 'I' for Inactive)
REMARK    1  A    between atoms: C_2  and  C_3
REMARK    2  A    between atoms: C_3  and  C_4
REMARK    3  A    between atoms: C_4  and  C_5
REMARK    4  A    between atoms: C_5  and  C_7
REMARK    5  A    between atoms: C_8  and  C_9
REMARK                            x       y       z     vdW  Elec       q    Type
REMARK                         _______ _______ _______ _____ _____    ______ ____
ROOT
ATOM      1  C   UNL     1       1.359   5.850  -5.858  0.00  0.00    +0.155 C 
ATOM      2  C   UNL     1       1.697   6.644  -7.014  0.00  0.00    +0.241 C 
ATOM      3  O   UNL     1       2.438   7.672  -6.931  0.00  0.00    -0.274 OA
ATOM      4  N   UNL     1       1.982   5.791  -8.139  0.00  0.00    -0.210 N 
ATOM      5  C   UNL     1       2.227   6.398  -9.438  0.00  0.00    +0.124 C 
ATOM      6  C   UNL     1       2.273   4.391  -7.968  0.00  0.00    +0.336 C 
ATOM      7  O   UNL     1       2.338   3.593  -8.923  0.00  0.00    -0.250 OA
ATOM      8  N   UNL     1       2.759   4.110  -6.642  0.00  0.00    -0.127 NA
ATOM      9  C   UNL     1       2.524   5.033  -5.552  0.00  0.00    +0.258 C 
ATOM     10  O   UNL     1       3.616   5.442  -5.046  0.00  0.00    -0.272 OA
ENDROOT
BRANCH   1  11
ATOM     11  C   UNL     1       0.865   6.721  -4.597  0.00  0.00    +0.081 C 
ATOM     12  C   UNL     1       2.384   6.985  -4.023  0.00  0.00    +0.015 C 
BRANCH  11  13
ATOM     13  C   UNL     1       0.637   5.478  -3.628  0.00  0.00    -0.091 C 
ATOM     14  C   UNL     1       0.869   5.347  -2.434  0.00  0.00    -0.091 C 
BRANCH  14  15
ATOM     15  C   UNL     1       1.269   4.837  -1.115  0.00  0.00    +0.076 C 
ATOM     16  C   UNL     1       2.771   4.723  -1.091  0.00  0.00    +0.015 C 
ENDBRANCH  14  15
ENDBRANCH  11  13
ENDBRANCH   1  11
BRANCH   1  17
ATOM     17  C   UNL     1       0.174   4.954  -6.114  0.00  0.00    +0.044 C 
BRANCH  17  19
ATOM     18  C   UNL     1      -2.095   5.458  -6.498  0.00  0.00    -0.005 C 
ATOM     19  C   UNL     1      -1.049   5.674  -6.513  0.00  0.00    -0.025 C 
ENDBRANCH  17  19
ENDBRANCH   1  17
TORSDOF 5
ENDMDL
MODEL 8
REMARK VINA RESULT:      -6.0      2.512      5.702
REMARK  Name = 
REMARK  5 active torsions:
REMARK  status: ('A' for Active; 'I' for Inactive)
REMARK    1  A    between atoms: C_2  and  C_3
REMARK    2  A    between atoms: C_3  and  C_4
REMARK    3  A    between atoms: C_4  and  C_5
REMARK    4  A    between atoms: C_5  and  C_7
REMARK    5  A    between atoms: C_8  and  C_9
REMARK                            x       y       z     vdW  Elec       q    Type
REMARK                         _______ _______ _______ _____ _____    ______ ____
ROOT
ATOM      1  C   UNL     1       2.114   5.988  -6.896  0.00  0.00    +0.155 C 
ATOM      2  C   UNL     1       1.137   5.440  -7.803  0.00  0.00    +0.241 C 
ATOM      3  O   UNL     1      -0.045   5.902  -7.878  0.00  0.00    -0.274 OA
ATOM      4  N   UNL     1       1.745   5.148  -9.076  0.00  0.00    -0.210 N 
ATOM      5  C   UNL     1       0.956   4.475 -10.095  0.00  0.00    +0.124 C 
ATOM      6  C   UNL     1       3.014   5.715  -9.451  0.00  0.00    +0.336 C 
ATOM      7  O   UNL     1       3.652   5.339 -10.454  0.00  0.00    -0.250 OA
ATOM      8  N   UNL     1       3.288   6.927  -8.723  0.00  0.00    -0.127 NA
ATOM      9  C   UNL     1       2.594   7.227  -7.489  0.00  0.00    +0.258 C 
ATOM     10  O   UNL     1       1.949   8.319  -7.572  0.00  0.00    -0.272 OA
ENDROOT
BRANCH   1  11
ATOM     11  C   UNL     1       1.563   6.192  -5.396  0.00  0.00    +0.081 C 
ATOM     12  C   UNL     1       0.867   4.703  -5.314  0.00  0.00    +0.015 C 
BRANCH  11  13
ATOM     13  C   UNL     1       0.196   6.887  -5.825  0.00  0.00    -0.091 C 
ATOM     14  C   UNL     1      -0.646   7.466  -5.154  0.00  0.00    -0.091 C 
BRANCH  14  15
ATOM     15  C   UNL     1      -1.904   7.967  -4.581  0.00  0.00    +0.076 C 
ATOM     16  C   UNL     1      -2.459   6.906  -3.666  0.00  0.00    +0.015 C 
ENDBRANCH  14  15
ENDBRANCH  11  13
ENDBRANCH   1  11
BRANCH   1  17
ATOM     17  C   UNL     1       3.277   5.051  -6.685  0.00  0.00    +0.044 C 
BRANCH  17  19
ATOM     18  C   UNL     1       4.742   5.134  -4.842  0.00  0.00    -0.005 C 
ATOM     19  C   UNL     1       4.272   5.537  -5.712  0.00  0.00    -0.025 C 
ENDBRANCH  17  19
ENDBRANCH   1  17
TORSDOF 5
ENDMDL
MODEL 9
REMARK VINA RESULT:      -5.9      1.820      2.652
REMARK  Name = 
REMARK  5 active torsions:
REMARK  status: ('A' for Active; 'I' for Inactive)
REMARK    1  A    between atoms: C_2  and  C_3
REMARK    2  A    between atoms: C_3  and  C_4
REMARK    3  A    between atoms: C_4  and  C_5
REMARK    4  A    between atoms: C_5  and  C_7
REMARK    5  A    between atoms: C_8  and  C_9
REMARK                            x       y       z     vdW  Elec       q    Type
REMARK                         _______ _______ _______ _____ _____    ______ ____
ROOT
ATOM      1  C   UNL     1       2.104   5.556  -7.033  0.00  0.00    +0.155 C 
ATOM      2  C   UNL     1       3.308   5.098  -6.385  0.00  0.00    +0.241 C 
ATOM      3  O   UNL     1       4.462   5.425  -6.802  0.00  0.00    -0.274 OA
ATOM      4  N   UNL     1       3.154   5.147  -4.954  0.00  0.00    -0.210 N 
ATOM      5  C   UNL     1       4.213   4.613  -4.112  0.00  0.00    +0.124 C 
ATOM      6  C   UNL     1       2.110   5.924  -4.335  0.00  0.00    +0.336 C 
ATOM      7  O   UNL     1       1.834   5.839  -3.122  0.00  0.00    -0.250 OA
ATOM      8  N   UNL     1       1.655   6.982  -5.199  0.00  0.00    -0.127 NA
ATOM      9  C   UNL     1       1.903   6.937  -6.624  0.00  0.00    +0.258 C 
ATOM     10  O   UNL     1       2.581   7.941  -7.010  0.00  0.00    -0.272 OA
ENDROOT
BRANCH   1  11
ATOM     11  C   UNL     1       2.123   5.380  -8.634  0.00  0.00    +0.081 C 
ATOM     12  C   UNL     1       2.701   3.840  -8.584  0.00  0.00    +0.015 C 
BRANCH  11  13
ATOM     13  C   UNL     1       3.577   5.996  -8.841  0.00  0.00    -0.091 C 
ATOM     14  C   UNL     1       4.064   6.581  -9.798  0.00  0.00    -0.091 C 
BRANCH  14  15
ATOM     15  C   UNL     1       4.960   7.067 -10.857  0.00  0.00    +0.076 C 
ATOM     16  C   UNL     1       6.355   6.591 -10.547  0.00  0.00    +0.015 C 
ENDBRANCH  14  15
ENDBRANCH  11  13
ENDBRANCH   1  11
BRANCH   1  17
ATOM     17  C   UNL     1       0.902   4.737  -6.636  0.00  0.00    +0.044 C 
BRANCH  17  19
ATOM     18  C   UNL     1      -1.382   5.276  -6.846  0.00  0.00    -0.005 C 
ATOM     19  C   UNL     1      -0.372   5.230  -7.190  0.00  0.00    -0.025 C 
ENDBRANCH  17  19
ENDBRANCH   1  17
TORSDOF 5
ENDMDL
