MODEL 1
REMARK VINA RESULT:      -8.8      0.000      0.000
REMARK  Name = 
REMARK  4 active torsions:
REMARK  status: ('A' for Active; 'I' for Inactive)
REMARK    1  A    between atoms: N_4  and  N_5
REMARK    2  A    between atoms: C_6  and  C_7
REMARK    3  A    between atoms: C_10  and  C_11
REMARK    4  A    between atoms: C_14  and  N_15
REMARK                            x       y       z     vdW  Elec       q    Type
REMARK                         _______ _______ _______ _____ _____    ______ ____
ROOT
ATOM      1  C   UNL     1       2.724   4.801  -7.647  0.00  0.00    +0.166 A 
ATOM      2  O   UNL     1       1.548   5.355  -7.876  0.00  0.00    -0.452 OA
ATOM      3  C   UNL     1       0.924   5.349  -6.726  0.00  0.00    +0.145 A 
ATOM      4  C   UNL     1       1.324   4.185  -6.082  0.00  0.00    +0.041 A 
ATOM      5  C   UNL     1       2.608   3.961  -6.546  0.00  0.00    +0.042 A 
ENDROOT
BRANCH   3   6
ATOM      6  C   UNL     1      -0.295   6.072  -6.341  0.00  0.00    +0.035 A 
ATOM      7  C   UNL     1      -1.553   5.519  -6.555  0.00  0.00    +0.009 A 
ATOM      8  C   UNL     1      -2.581   5.665  -5.630  0.00  0.00    +0.075 A 
ATOM      9  C   UNL     1      -2.346   6.304  -4.418  0.00  0.00    +0.290 A 
ATOM     10  C   UNL     1      -1.257   7.167  -4.419  0.00  0.00    +0.075 A 
ATOM     11  C   UNL     1      -0.274   7.098  -5.402  0.00  0.00    +0.009 A 
BRANCH   9  12
ATOM     12  N   UNL     1      -2.870   5.786  -3.188  0.00  0.00    +0.081 N 
ATOM     13  O   UNL     1      -3.870   6.511  -2.581  0.00  0.00    -0.576 OA
ATOM     14  O   UNL     1      -2.842   4.562  -2.915  0.00  0.00    +0.041 OA
ENDBRANCH   9  12
ENDBRANCH   3   6
BRANCH   1  16
ATOM     15  N   UNL     1       4.674   5.536  -8.874  0.00  0.00    -0.169 NA
ATOM     16  C   UNL     1       3.763   4.647  -8.674  0.00  0.00    +0.155 C 
BRANCH  15  22
ATOM     17  O   UNL     1       7.413   4.616 -12.454  0.00  0.00    -0.271 OA
ATOM     18  C   UNL     1       6.523   5.354 -11.959  0.00  0.00    +0.272 C 
ATOM     19  N   UNL     1       5.205   5.588 -12.462  0.00  0.00    -0.125 NA
ATOM     20  C   UNL     1       4.369   5.825 -11.331  0.00  0.00    +0.349 C 
ATOM     21  O   UNL     1       3.124   6.018 -11.411  0.00  0.00    -0.249 OA
ATOM     22  N   UNL     1       5.177   5.706 -10.161  0.00  0.00    -0.154 N 
ATOM     23  C   UNL     1       6.531   5.977 -10.600  0.00  0.00    +0.208 C 
ENDBRANCH  15  22
ENDBRANCH   1  16
TORSDOF 4
ENDMDL
MODEL 2
REMARK VINA RESULT:      -8.7      1.460      1.982
REMARK  Name = 
REMARK  4 active torsions:
REMARK  status: ('A' for Active; 'I' for Inactive)
REMARK    1  A    between atoms: N_4  and  N_5
REMARK    2  A    between atoms: C_6  and  C_7
REMARK    3  A    between atoms: C_10  and  C_11
REMARK    4  A    between atoms: C_14  and  N_15
REMARK                            x       y       z     vdW  Elec       q    Type
REMARK                         _______ _______ _______ _____ _____    ______ ____
ROOT
ATOM      1  C   UNL     1       2.952   6.320  -8.634  0.00  0.00    +0.166 A 
ATOM      2  O   UNL     1       2.447   5.449  -7.778  0.00  0.00    -0.452 OA
ATOM      3  C   UNL     1       1.389   6.027  -7.271  0.00  0.00    +0.145 A 
ATOM      4  C   UNL     1       1.693   7.380  -7.193  0.00  0.00    +0.041 A 
ATOM      5  C   UNL     1       2.566   7.596  -8.244  0.00  0.00    +0.042 A 
ENDROOT
BRANCH   3   6
ATOM      6  C   UNL     1       0.307   5.425  -6.479  0.00  0.00    +0.035 A 
ATOM      7  C   UNL     1       0.443   5.238  -5.108  0.00  0.00    +0.009 A 
ATOM      8  C   UNL     1      -0.619   5.445  -4.235  0.00  0.00    +0.075 A 
ATOM      9  C   UNL     1      -1.832   5.930  -4.711  0.00  0.00    +0.290 A 
ATOM     10  C   UNL     1      -2.052   5.712  -6.066  0.00  0.00    +0.075 A 
ATOM     11  C   UNL     1      -1.008   5.401  -6.932  0.00  0.00    +0.009 A 
BRANCH   9  12
ATOM     12  N   UNL     1      -2.560   6.942  -4.003  0.00  0.00    +0.081 N 
ATOM     13  O   UNL     1      -3.507   6.515  -3.101  0.00  0.00    -0.576 OA
ATOM     14  O   UNL     1      -2.080   8.081  -3.791  0.00  0.00    +0.041 OA
ENDBRANCH   9  12
ENDBRANCH   3   6
BRANCH   1  16
ATOM     15  N   UNL     1       4.547   6.871 -10.366  0.00  0.00    -0.169 NA
ATOM     16  C   UNL     1       4.136   6.051  -9.460  0.00  0.00    +0.155 C 
BRANCH  15  22
ATOM     17  O   UNL     1       7.818   4.605 -12.675  0.00  0.00    -0.271 OA
ATOM     18  C   UNL     1       6.775   5.306 -12.723  0.00  0.00    +0.272 C 
ATOM     19  N   UNL     1       5.510   4.949 -13.288  0.00  0.00    -0.125 NA
ATOM     20  C   UNL     1       4.514   5.628 -12.526  0.00  0.00    +0.349 C 
ATOM     21  O   UNL     1       3.273   5.496 -12.724  0.00  0.00    -0.249 OA
ATOM     22  N   UNL     1       5.177   6.362 -11.498  0.00  0.00    -0.154 N 
ATOM     23  C   UNL     1       6.521   6.585 -11.992  0.00  0.00    +0.208 C 
ENDBRANCH  15  22
ENDBRANCH   1  16
TORSDOF 4
ENDMDL
MODEL 3
REMARK VINA RESULT:      -8.5      2.361      9.319
REMARK  Name = 
REMARK  4 active torsions:
REMARK  status: ('A' for Active; 'I' for Inactive)
REMARK    1  A    between atoms: N_4  and  N_5
REMARK    2  A    between atoms: C_6  and  C_7
REMARK    3  A    between atoms: C_10  and  C_11
REMARK    4  A    between atoms: C_14  and  N_15
REMARK                            x       y       z     vdW  Elec       q    Type
REMARK                         _______ _______ _______ _____ _____    ______ ____
ROOT
ATOM      1  C   UNL     1       2.352   6.604  -6.280  0.00  0.00    +0.166 A 
ATOM      2  O   UNL     1       3.002   5.602  -6.844  0.00  0.00    -0.452 OA
ATOM      3  C   UNL     1       3.408   6.053  -8.003  0.00  0.00    +0.145 A 
ATOM      4  C   UNL     1       2.415   6.920  -8.444  0.00  0.00    +0.041 A 
ATOM      5  C   UNL     1       1.874   7.439  -7.282  0.00  0.00    +0.042 A 
ENDROOT
BRANCH   3   6
ATOM      6  C   UNL     1       4.392   5.465  -8.922  0.00  0.00    +0.035 A 
ATOM      7  C   UNL     1       4.111   5.322 -10.276  0.00  0.00    +0.009 A 
ATOM      8  C   UNL     1       5.079   5.546 -11.249  0.00  0.00    +0.075 A 
ATOM      9  C   UNL     1       6.341   6.002 -10.889  0.00  0.00    +0.290 A 
ATOM     10  C   UNL     1       6.698   5.740  -9.571  0.00  0.00    +0.075 A 
ATOM     11  C   UNL     1       5.746   5.413  -8.610  0.00  0.00    +0.009 A 
BRANCH   9  12
ATOM     12  N   UNL     1       7.005   7.028 -11.638  0.00  0.00    +0.081 N 
ATOM     13  O   UNL     1       7.764   6.625 -12.713  0.00  0.00    -0.576 OA
ATOM     14  O   UNL     1       6.570   8.203 -11.689  0.00  0.00    +0.041 OA
ENDBRANCH   9  12
ENDBRANCH   3   6
BRANCH   1  16
ATOM     15  N   UNL     1       1.236   5.455  -4.468  0.00  0.00    -0.169 NA
ATOM     16  C   UNL     1       1.762   6.534  -4.937  0.00  0.00    +0.155 C 
BRANCH  15  22
ATOM     17  O   UNL     1      -3.048   4.717  -2.961  0.00  0.00    -0.271 OA
ATOM     18  C   UNL     1      -1.940   5.285  -2.780  0.00  0.00    +0.272 C 
ATOM     19  N   UNL     1      -1.050   5.125  -1.672  0.00  0.00    -0.125 NA
ATOM     20  C   UNL     1       0.271   5.313  -2.174  0.00  0.00    +0.349 C 
ATOM     21  O   UNL     1       1.311   5.191  -1.469  0.00  0.00    -0.249 OA
ATOM     22  N   UNL     1       0.172   5.557  -3.577  0.00  0.00    -0.154 N 
ATOM     23  C   UNL     1      -1.165   6.078  -3.783  0.00  0.00    +0.208 C 
ENDBRANCH  15  22
ENDBRANCH   1  16
TORSDOF 4
ENDMDL
MODEL 4
REMARK VINA RESULT:      -8.5      3.288      9.151
REMARK  Name = 
REMARK  4 active torsions:
REMARK  status: ('A' for Active; 'I' for Inactive)
REMARK    1  A    between atoms: N_4  and  N_5
REMARK    2  A    between atoms: C_6  and  C_7
REMARK    3  A    between atoms: C_10  and  C_11
REMARK    4  A    between atoms: C_14  and  N_15
REMARK                            x       y       z     vdW  Elec       q    Type
REMARK                         _______ _______ _______ _____ _____    ______ ____
ROOT
ATOM      1  C   UNL     1       2.759   4.841  -6.603  0.00  0.00    +0.166 A 
ATOM      2  O   UNL     1       3.925   5.388  -6.898  0.00  0.00    -0.452 OA
ATOM      3  C   UNL     1       4.002   5.373  -8.204  0.00  0.00    +0.145 A 
ATOM      4  C   UNL     1       3.361   4.209  -8.610  0.00  0.00    +0.041 A 
ATOM      5  C   UNL     1       2.394   3.996  -7.644  0.00  0.00    +0.042 A 
ENDROOT
BRANCH   3   6
ATOM      6  C   UNL     1       4.947   6.086  -9.074  0.00  0.00    +0.035 A 
ATOM      7  C   UNL     1       6.288   5.722  -9.125  0.00  0.00    +0.009 A 
ATOM      8  C   UNL     1       7.000   5.725 -10.319  0.00  0.00    +0.075 A 
ATOM      9  C   UNL     1       6.357   6.016 -11.517  0.00  0.00    +0.290 A 
ATOM     10  C   UNL     1       5.183   6.749 -11.381  0.00  0.00    +0.075 A 
ATOM     11  C   UNL     1       4.517   6.837 -10.163  0.00  0.00    +0.009 A 
BRANCH   9  12
ATOM     12  N   UNL     1       6.615   5.258 -12.706  0.00  0.00    +0.081 N 
ATOM     13  O   UNL     1       7.802   4.563 -12.758  0.00  0.00    -0.576 OA
ATOM     14  O   UNL     1       5.689   4.810 -13.423  0.00  0.00    +0.041 OA
ENDBRANCH   9  12
ENDBRANCH   3   6
BRANCH   1  16
ATOM     15  N   UNL     1       2.370   5.634  -4.352  0.00  0.00    -0.169 NA
ATOM     16  C   UNL     1       2.253   4.700  -5.232  0.00  0.00    +0.155 C 
BRANCH  15  22
ATOM     17  O   UNL     1       4.040   5.993  -0.080  0.00  0.00    -0.271 OA
ATOM     18  C   UNL     1       3.319   5.355  -0.889  0.00  0.00    +0.272 C 
ATOM     19  N   UNL     1       1.914   5.104  -0.793  0.00  0.00    -0.125 NA
ATOM     20  C   UNL     1       1.415   5.043  -2.127  0.00  0.00    +0.349 C 
ATOM     21  O   UNL     1       0.194   4.883  -2.409  0.00  0.00    -0.249 OA
ATOM     22  N   UNL     1       2.508   5.283  -3.012  0.00  0.00    -0.154 N 
ATOM     23  C   UNL     1       3.694   4.911  -2.267  0.00  0.00    +0.208 C 
ENDBRANCH  15  22
ENDBRANCH   1  16
TORSDOF 4
ENDMDL
MODEL 5
REMARK VINA RESULT:      -8.2      2.134      9.342
REMARK  Name = 
REMARK  4 active torsions:
REMARK  status: ('A' for Active; 'I' for Inactive)
REMARK    1  A    between atoms: N_4  and  N_5
REMARK    2  A    between atoms: C_6  and  C_7
REMARK    3  A    between atoms: C_10  and  C_11
REMARK    4  A    between atoms: C_14  and  N_15
REMARK                            x       y       z     vdW  Elec       q    Type
REMARK                         _______ _______ _______ _____ _____    ______ ____
ROOT
ATOM      1  C   UNL     1       2.271   5.362  -7.208  0.00  0.00    +0.166 A 
ATOM      2  O   UNL     1       3.193   6.059  -7.847  0.00  0.00    -0.452 OA
ATOM      3  C   UNL     1       3.247   5.551  -9.051  0.00  0.00    +0.145 A 
ATOM      4  C   UNL     1       3.007   4.190  -8.903  0.00  0.00    +0.041 A 
ATOM      5  C   UNL     1       2.178   4.108  -7.799  0.00  0.00    +0.042 A 
ENDROOT
BRANCH   3   6
ATOM      6  C   UNL     1       3.896   6.100 -10.249  0.00  0.00    +0.035 A 
ATOM      7  C   UNL     1       4.927   7.028 -10.143  0.00  0.00    +0.009 A 
ATOM      8  C   UNL     1       6.026   6.996 -10.993  0.00  0.00    +0.075 A 
ATOM      9  C   UNL     1       6.161   5.974 -11.926  0.00  0.00    +0.290 A 
ATOM     10  C   UNL     1       4.971   5.344 -12.272  0.00  0.00    +0.075 A 
ATOM     11  C   UNL     1       3.833   5.455 -11.480  0.00  0.00    +0.009 A 
BRANCH   9  12
ATOM     12  N   UNL     1       7.424   5.333 -12.153  0.00  0.00    +0.081 N 
ATOM     13  O   UNL     1       7.615   4.748 -13.384  0.00  0.00    -0.576 OA
ATOM     14  O   UNL     1       8.465   5.681 -11.548  0.00  0.00    +0.041 OA
ENDBRANCH   9  12
ENDBRANCH   3   6
BRANCH   1  16
ATOM     15  N   UNL     1       1.282   4.751  -5.087  0.00  0.00    -0.169 NA
ATOM     16  C   UNL     1       1.862   5.635  -5.824  0.00  0.00    +0.155 C 
BRANCH  15  22
ATOM     17  O   UNL     1      -2.768   4.805  -2.906  0.00  0.00    -0.271 OA
ATOM     18  C   UNL     1      -1.618   5.300  -3.024  0.00  0.00    +0.272 C 
ATOM     19  N   UNL     1      -0.585   5.349  -2.036  0.00  0.00    -0.125 NA
ATOM     20  C   UNL     1       0.656   5.285  -2.734  0.00  0.00    +0.349 C 
ATOM     21  O   UNL     1       1.781   5.256  -2.160  0.00  0.00    -0.249 OA
ATOM     22  N   UNL     1       0.366   5.170  -4.127  0.00  0.00    -0.154 N 
ATOM     23  C   UNL     1      -0.957   5.738  -4.292  0.00  0.00    +0.208 C 
ENDBRANCH  15  22
ENDBRANCH   1  16
TORSDOF 4
ENDMDL
MODEL 6
REMARK VINA RESULT:      -8.1      1.749      2.431
REMARK  Name = 
REMARK  4 active torsions:
REMARK  status: ('A' for Active; 'I' for Inactive)
REMARK    1  A    between atoms: N_4  and  N_5
REMARK    2  A    between atoms: C_6  and  C_7
REMARK    3  A    between atoms: C_10  and  C_11
REMARK    4  A    between atoms: C_14  and  N_15
REMARK                            x       y       z     vdW  Elec       q    Type
REMARK                         _______ _______ _______ _____ _____    ______ ____
ROOT
ATOM      1  C   UNL     1       2.540   5.928  -9.149  0.00  0.00    +0.166 A 
ATOM      2  O   UNL     1       2.018   5.090  -8.271  0.00  0.00    -0.452 OA
ATOM      3  C   UNL     1       1.178   5.799  -7.561  0.00  0.00    +0.145 A 
ATOM      4  C   UNL     1       1.741   7.066  -7.459  0.00  0.00    +0.041 A 
ATOM      5  C   UNL     1       2.465   7.214  -8.628  0.00  0.00    +0.042 A 
ENDROOT
BRANCH   3   6
ATOM      6  C   UNL     1       0.138   5.332  -6.635  0.00  0.00    +0.035 A 
ATOM      7  C   UNL     1       0.387   5.236  -5.270  0.00  0.00    +0.009 A 
ATOM      8  C   UNL     1      -0.576   5.578  -4.328  0.00  0.00    +0.075 A 
ATOM      9  C   UNL     1      -1.795   6.110  -4.733  0.00  0.00    +0.290 A 
ATOM     10  C   UNL     1      -2.151   5.811  -6.044  0.00  0.00    +0.075 A 
ATOM     11  C   UNL     1      -1.211   5.367  -6.969  0.00  0.00    +0.009 A 
BRANCH   9  12
ATOM     12  N   UNL     1      -2.391   7.219  -4.047  0.00  0.00    +0.081 N 
ATOM     13  O   UNL     1      -2.979   6.957  -2.830  0.00  0.00    -0.576 OA
ATOM     14  O   UNL     1      -1.999   8.397  -4.220  0.00  0.00    +0.041 OA
ENDBRANCH   9  12
ENDBRANCH   3   6
BRANCH   1  16
ATOM     15  N   UNL     1       4.748   5.294  -9.903  0.00  0.00    -0.169 NA
ATOM     16  C   UNL     1       3.510   5.527 -10.175  0.00  0.00    +0.155 C 
BRANCH  15  22
ATOM     17  O   UNL     1       6.442   7.311 -13.675  0.00  0.00    -0.271 OA
ATOM     18  C   UNL     1       6.612   6.479 -12.747  0.00  0.00    +0.272 C 
ATOM     19  N   UNL     1       7.635   6.483 -11.748  0.00  0.00    -0.125 NA
ATOM     20  C   UNL     1       7.070   5.896 -10.578  0.00  0.00    +0.349 C 
ATOM     21  O   UNL     1       7.689   5.788  -9.482  0.00  0.00    -0.249 OA
ATOM     22  N   UNL     1       5.713   5.567 -10.868  0.00  0.00    -0.154 N 
ATOM     23  C   UNL     1       5.653   5.419 -12.309  0.00  0.00    +0.208 C 
ENDBRANCH  15  22
ENDBRANCH   1  16
TORSDOF 4
ENDMDL
MODEL 7
REMARK VINA RESULT:      -8.1      3.581      4.443
REMARK  Name = 
REMARK  4 active torsions:
REMARK  status: ('A' for Active; 'I' for Inactive)
REMARK    1  A    between atoms: N_4  and  N_5
REMARK    2  A    between atoms: C_6  and  C_7
REMARK    3  A    between atoms: C_10  and  C_11
REMARK    4  A    between atoms: C_14  and  N_15
REMARK                            x       y       z     vdW  Elec       q    Type
REMARK                         _______ _______ _______ _____ _____    ______ ____
ROOT
ATOM      1  C   UNL     1       3.532   6.225  -8.149  0.00  0.00    +0.166 A 
ATOM      2  O   UNL     1       4.527   6.271  -7.281  0.00  0.00    -0.452 OA
ATOM      3  C   UNL     1       3.965   6.274  -6.099  0.00  0.00    +0.145 A 
ATOM      4  C   UNL     1       2.783   6.991  -6.241  0.00  0.00    +0.041 A 
ATOM      5  C   UNL     1       2.401   6.765  -7.551  0.00  0.00    +0.042 A 
ENDROOT
BRANCH   3   6
ATOM      6  C   UNL     1       4.587   6.050  -4.788  0.00  0.00    +0.035 A 
ATOM      7  C   UNL     1       5.121   7.108  -4.059  0.00  0.00    +0.009 A 
ATOM      8  C   UNL     1       4.989   7.180  -2.677  0.00  0.00    +0.075 A 
ATOM      9  C   UNL     1       4.240   6.229  -1.994  0.00  0.00    +0.290 A 
ATOM     10  C   UNL     1       4.087   5.021  -2.664  0.00  0.00    +0.075 A 
ATOM     11  C   UNL     1       4.318   4.913  -4.032  0.00  0.00    +0.009 A 
BRANCH   9  12
ATOM     12  N   UNL     1       3.341   6.602  -0.941  0.00  0.00    +0.081 N 
ATOM     13  O   UNL     1       2.020   6.781  -1.282  0.00  0.00    -0.576 OA
ATOM     14  O   UNL     1       3.559   6.303   0.257  0.00  0.00    +0.041 OA
ENDBRANCH   9  12
ENDBRANCH   3   6
BRANCH   1  16
ATOM     15  N   UNL     1       4.305   5.169 -10.183  0.00  0.00    -0.169 NA
ATOM     16  C   UNL     1       3.728   6.165  -9.603  0.00  0.00    +0.155 C 
BRANCH  15  22
ATOM     17  O   UNL     1       7.888   4.709 -13.031  0.00  0.00    -0.271 OA
ATOM     18  C   UNL     1       6.789   5.270 -12.788  0.00  0.00    +0.272 C 
ATOM     19  N   UNL     1       5.594   5.221 -13.573  0.00  0.00    -0.125 NA
ATOM     20  C   UNL     1       4.500   5.319 -12.663  0.00  0.00    +0.349 C 
ATOM     21  O   UNL     1       3.289   5.258 -13.017  0.00  0.00    -0.249 OA
ATOM     22  N   UNL     1       5.038   5.399 -11.344  0.00  0.00    -0.154 N 
ATOM     23  C   UNL     1       6.380   5.921 -11.506  0.00  0.00    +0.208 C 
ENDBRANCH  15  22
ENDBRANCH   1  16
TORSDOF 4
ENDMDL
MODEL 8
REMARK VINA RESULT:      -8.1      2.010      9.056
REMARK  Name = 
REMARK  4 active torsions:
REMARK  status: ('A' for Active; 'I' for Inactive)
REMARK    1  A    between atoms: N_4  and  N_5
REMARK    2  A    between atoms: C_6  and  C_7
REMARK    3  A    between atoms: C_10  and  C_11
REMARK    4  A    between atoms: C_14  and  N_15
REMARK                            x       y       z     vdW  Elec       q    Type
REMARK                         _______ _______ _______ _____ _____    ______ ____
ROOT
ATOM      1  C   UNL     1       0.722   5.319  -7.358  0.00  0.00    +0.166 A 
ATOM      2  O   UNL     1       1.802   4.610  -7.633  0.00  0.00    -0.452 OA
ATOM      3  C   UNL     1       2.275   5.105  -8.748  0.00  0.00    +0.145 A 
ATOM      4  C   UNL     1       1.168   5.492  -9.494  0.00  0.00    +0.041 A 
ATOM      5  C   UNL     1       0.222   5.837  -8.546  0.00  0.00    +0.042 A 
ENDROOT
BRANCH   3   6
ATOM      6  C   UNL     1       3.590   4.882  -9.364  0.00  0.00    +0.035 A 
ATOM      7  C   UNL     1       3.784   5.077 -10.727  0.00  0.00    +0.009 A 
ATOM      8  C   UNL     1       4.951   5.645 -11.224  0.00  0.00    +0.075 A 
ATOM      9  C   UNL     1       5.928   6.114 -10.353  0.00  0.00    +0.290 A 
ATOM     10  C   UNL     1       5.892   5.548  -9.083  0.00  0.00    +0.075 A 
ATOM     11  C   UNL     1       4.762   4.885  -8.614  0.00  0.00    +0.009 A 
BRANCH   9  12
ATOM     12  N   UNL     1       6.594   7.362 -10.580  0.00  0.00    +0.081 N 
ATOM     13  O   UNL     1       7.890   7.471 -10.129  0.00  0.00    -0.576 OA
ATOM     14  O   UNL     1       6.283   8.119 -11.531  0.00  0.00    +0.041 OA
ENDBRANCH   9  12
ENDBRANCH   3   6
BRANCH   1  16
ATOM     15  N   UNL     1      -1.354   5.400  -6.121  0.00  0.00    -0.169 NA
ATOM     16  C   UNL     1      -0.098   5.116  -6.157  0.00  0.00    +0.155 C 
BRANCH  15  22
ATOM     17  O   UNL     1      -2.490   5.045  -1.677  0.00  0.00    -0.271 OA
ATOM     18  C   UNL     1      -2.561   5.710  -2.742  0.00  0.00    +0.272 C 
ATOM     19  N   UNL     1      -2.091   7.041  -2.971  0.00  0.00    -0.125 NA
ATOM     20  C   UNL     1      -1.703   7.110  -4.342  0.00  0.00    +0.349 C 
ATOM     21  O   UNL     1      -1.192   8.136  -4.872  0.00  0.00    -0.249 OA
ATOM     22  N   UNL     1      -1.915   5.823  -4.919  0.00  0.00    -0.154 N 
ATOM     23  C   UNL     1      -2.929   5.195  -4.097  0.00  0.00    +0.208 C 
ENDBRANCH  15  22
ENDBRANCH   1  16
TORSDOF 4
ENDMDL
MODEL 9
REMARK VINA RESULT:      -7.8      3.839      7.971
REMARK  Name = 
REMARK  4 active torsions:
REMARK  status: ('A' for Active; 'I' for Inactive)
REMARK    1  A    between atoms: N_4  and  N_5
REMARK    2  A    between atoms: C_6  and  C_7
REMARK    3  A    between atoms: C_10  and  C_11
REMARK    4  A    between atoms: C_14  and  N_15
REMARK                            x       y       z     vdW  Elec       q    Type
REMARK                         _______ _______ _______ _____ _____    ______ ____
ROOT
ATOM      1  C   UNL     1       0.970   6.017  -6.889  0.00  0.00    +0.166 A 
ATOM      2  O   UNL     1       1.257   5.741  -8.149  0.00  0.00    -0.452 OA
ATOM      3  C   UNL     1       0.114   5.767  -8.785  0.00  0.00    +0.145 A 
ATOM      4  C   UNL     1      -0.832   5.281  -7.889  0.00  0.00    +0.041 A 
ATOM      5  C   UNL     1      -0.348   5.651  -6.647  0.00  0.00    +0.042 A 
ENDROOT
BRANCH   3   6
ATOM      6  C   UNL     1      -0.129   5.796 -10.233  0.00  0.00    +0.035 A 
ATOM      7  C   UNL     1      -0.059   6.988 -10.947  0.00  0.00    +0.009 A 
ATOM      8  C   UNL     1       0.492   7.043 -12.222  0.00  0.00    +0.075 A 
ATOM      9  C   UNL     1       1.068   5.910 -12.785  0.00  0.00    +0.290 A 
ATOM     10  C   UNL     1       0.625   4.706 -12.249  0.00  0.00    +0.075 A 
ATOM     11  C   UNL     1      -0.023   4.653 -11.018  0.00  0.00    +0.009 A 
BRANCH   9  12
ATOM     12  N   UNL     1       2.308   5.981 -13.501  0.00  0.00    +0.081 N 
ATOM     13  O   UNL     1       3.463   5.968 -12.753  0.00  0.00    -0.576 OA
ATOM     14  O   UNL     1       2.419   5.573 -14.682  0.00  0.00    +0.041 OA
ENDBRANCH   9  12
ENDBRANCH   3   6
BRANCH   1  16
ATOM     15  N   UNL     1       2.411   5.108  -5.173  0.00  0.00    -0.169 NA
ATOM     16  C   UNL     1       1.984   6.130  -5.833  0.00  0.00    +0.155 C 
BRANCH  15  22
ATOM     17  O   UNL     1       2.045   4.681  -0.606  0.00  0.00    -0.271 OA
ATOM     18  C   UNL     1       2.679   5.161  -1.581  0.00  0.00    +0.272 C 
ATOM     19  N   UNL     1       4.042   4.919  -1.939  0.00  0.00    -0.125 NA
ATOM     20  C   UNL     1       4.118   5.012  -3.360  0.00  0.00    +0.349 C 
ATOM     21  O   UNL     1       5.176   4.802  -4.018  0.00  0.00    -0.249 OA
ATOM     22  N   UNL     1       2.805   5.280  -3.849  0.00  0.00    -0.154 N 
ATOM     23  C   UNL     1       2.104   5.904  -2.745  0.00  0.00    +0.208 C 
ENDBRANCH  15  22
ENDBRANCH   1  16
TORSDOF 4
ENDMDL
