MODEL 1
REMARK VINA RESULT:      -2.9      0.000      0.000
REMARK  Name = 
REMARK  8 active torsions:
REMARK  status: ('A' for Active; 'I' for Inactive)
REMARK    1  A    between atoms: C_2  and  C_3
REMARK    2  A    between atoms: C_5  and  N_6
REMARK    3  A    between atoms: C_5  and  C_46
REMARK    4  A    between atoms: C_7  and  C_9
REMARK    5  A    between atoms: C_16  and  C_17
REMARK    6  A    between atoms: C_38  and  O_39
REMARK    7  A    between atoms: N_48  and  S_49
REMARK    8  A    between atoms: S_49  and  C_52
REMARK                            x       y       z     vdW  Elec       q    Type
REMARK                         _______ _______ _______ _____ _____    ______ ____
ROOT
ATOM      1  C   UNL     1       2.845   7.607  -5.909  0.00  0.00    +0.157 C 
ATOM      2  N   UNL     1       1.635   6.896  -5.203  0.00  0.00    -0.268 N 
ATOM      3  C   UNL     1       0.409   6.645  -5.907  0.00  0.00    +0.246 C 
ATOM      4  C   UNL     1      -0.703   6.034  -4.915  0.00  0.00    +0.174 C 
ATOM      5  N   UNL     1      -1.936   6.674  -5.661  0.00  0.00    -0.161 NA
ATOM      6  C   UNL     1      -2.378   7.861  -5.024  0.00  0.00    +0.421 C 
ATOM      7  O   UNL     1      -2.786   7.682  -3.716  0.00  0.00    -0.437 OA
ATOM      8  C   UNL     1      -1.743   6.951  -2.832  0.00  0.00    +0.171 C 
ATOM      9  C   UNL     1      -1.844   8.169  -1.633  0.00  0.00    +0.044 C 
ATOM     10  C   UNL     1      -0.669   7.563  -0.671  0.00  0.00    +0.004 C 
ATOM     11  C   UNL     1      -0.397   6.158  -0.984  0.00  0.00    +0.000 C 
ATOM     12  C   UNL     1       0.948   5.773  -0.504  0.00  0.00    +0.000 C 
ATOM     13  C   UNL     1       1.558   4.566  -1.148  0.00  0.00    +0.006 C 
ATOM     14  C   UNL     1       2.910   4.880  -1.801  0.00  0.00    +0.051 C 
ATOM     15  C   UNL     1       3.448   5.997  -0.997  0.00  0.00    +0.112 A 
ATOM     16  C   UNL     1       3.177   7.266  -1.493  0.00  0.00    +0.239 A 
ATOM     17  O   UNL     1       2.540   7.275  -2.739  0.00  0.00    -0.461 OA
ATOM     18  C   UNL     1       3.440   6.448  -3.698  0.00  0.00    +0.189 C 
ATOM     19  N   UNL     1       3.469   8.303  -0.724  0.00  0.00    -0.209 NA
ATOM     20  C   UNL     1       4.254   8.111   0.370  0.00  0.00    +0.105 A 
ATOM     21  C   UNL     1       4.920   6.892   0.456  0.00  0.00    +0.099 A 
ATOM     22  C   UNL     1       6.075   6.794   1.217  0.00  0.00    +0.024 A 
ATOM     23  C   UNL     1       6.355   7.853   2.071  0.00  0.00    +0.039 A 
ATOM     24  C   UNL     1       5.435   8.868   2.310  0.00  0.00    +0.140 A 
ATOM     25  C   UNL     1       4.546   9.111   1.268  0.00  0.00    +0.058 A 
ATOM     26  N   UNL     1       4.180   5.802   0.129  0.00  0.00    -0.243 NA
ATOM     27  C   UNL     1      -2.860   6.791  -1.538  0.00  0.00    +0.047 C 
ATOM     28  O   UNL     1      -2.739   8.851  -5.700  0.00  0.00    -0.225 OA
ATOM     29  O   UNL     1       0.074   7.433  -6.795  0.00  0.00    -0.273 OA
ATOM     30  C   UNL     1       2.232   5.848  -4.615  0.00  0.00    +0.137 C 
ATOM     31  C   UNL     1       3.710   7.801  -4.552  0.00  0.00    +0.075 C 
ENDROOT
BRANCH   4  32
ATOM     32  C   UNL     1      -0.882   4.643  -5.765  0.00  0.00    +0.027 C 
ATOM     33  C   UNL     1      -1.002   5.084  -7.223  0.00  0.00    +0.002 C 
ATOM     34  C   UNL     1      -2.160   4.015  -5.404  0.00  0.00    +0.002 C 
ATOM     35  C   UNL     1       0.348   3.844  -5.642  0.00  0.00    +0.002 C 
ENDBRANCH   4  32
BRANCH   1  37
ATOM     36  N   UNL     1       4.697   6.649  -7.246  0.00  0.00    -0.198 NA
ATOM     37  C   UNL     1       3.674   6.282  -6.362  0.00  0.00    +0.260 C 
ATOM     38  O   UNL     1       2.926   5.378  -6.845  0.00  0.00    -0.272 OA
BRANCH  36  40
ATOM     39  C   UNL     1       6.652   5.976  -8.812  0.00  0.00    +0.051 C 
ATOM     40  C   UNL     1       5.053   6.259  -8.550  0.00  0.00    +0.156 C 
ATOM     41  C   UNL     1       5.694   4.758  -8.233  0.00  0.00    +0.036 C 
BRANCH  40  42
ATOM     42  C   UNL     1       4.158   6.230  -9.685  0.00  0.00    +0.291 C 
ATOM     43  N   UNL     1       3.158   5.403  -9.810  0.00  0.00    -0.092 NA
ATOM     44  O   UNL     1       3.958   7.431 -10.379  0.00  0.00    -0.267 OA
BRANCH  43  45
ATOM     45  S   UNL     1       1.713   5.727 -10.645  0.00  0.00    +0.082 S 
ATOM     46  O   UNL     1       1.019   6.879  -9.951  0.00  0.00    -0.151 OA
ATOM     47  O   UNL     1       0.746   4.596 -10.674  0.00  0.00    -0.151 OA
BRANCH  45  48
ATOM     48  C   UNL     1       1.989   6.307 -12.314  0.00  0.00    +0.153 C 
ATOM     49  C   UNL     1       2.911   5.365 -13.106  0.00  0.00    +0.028 C 
ATOM     50  C   UNL     1       1.450   5.386 -13.389  0.00  0.00    +0.028 C 
ENDBRANCH  45  48
ENDBRANCH  43  45
ENDBRANCH  40  42
BRANCH  39  52
ATOM     51  C   UNL     1       7.227   5.578 -10.939  0.00  0.00    -0.005 C 
ATOM     52  C   UNL     1       6.546   5.465 -10.371  0.00  0.00    -0.024 C 
ENDBRANCH  39  52
ENDBRANCH  36  40
ENDBRANCH   1  37
BRANCH  24  53
ATOM     53  O   UNL     1       5.202   9.346   3.604  0.00  0.00    -0.471 OA
ATOM     54  C   UNL     1       4.440  10.525   3.732  0.00  0.00    +0.252 C 
ENDBRANCH  24  53
TORSDOF 8
ENDMDL
MODEL 2
REMARK VINA RESULT:      -2.0      3.538      8.388
REMARK  Name = 
REMARK  8 active torsions:
REMARK  status: ('A' for Active; 'I' for Inactive)
REMARK    1  A    between atoms: C_2  and  C_3
REMARK    2  A    between atoms: C_5  and  N_6
REMARK    3  A    between atoms: C_5  and  C_46
REMARK    4  A    between atoms: C_7  and  C_9
REMARK    5  A    between atoms: C_16  and  C_17
REMARK    6  A    between atoms: C_38  and  O_39
REMARK    7  A    between atoms: N_48  and  S_49
REMARK    8  A    between atoms: S_49  and  C_52
REMARK                            x       y       z     vdW  Elec       q    Type
REMARK                         _______ _______ _______ _____ _____    ______ ____
ROOT
ATOM      1  C   UNL     1       3.924   8.615  -1.741  0.00  0.00    +0.157 C 
ATOM      2  N   UNL     1       3.070   7.579  -2.557  0.00  0.00    -0.268 N 
ATOM      3  C   UNL     1       3.479   7.145  -3.863  0.00  0.00    +0.246 C 
ATOM      4  C   UNL     1       2.360   6.195  -4.524  0.00  0.00    +0.174 C 
ATOM      5  N   UNL     1       2.655   6.628  -6.012  0.00  0.00    -0.161 NA
ATOM      6  C   UNL     1       1.737   7.608  -6.466  0.00  0.00    +0.421 C 
ATOM      7  O   UNL     1       0.419   7.194  -6.455  0.00  0.00    -0.437 OA
ATOM      8  C   UNL     1      -0.040   6.616  -5.092  0.00  0.00    +0.171 C 
ATOM      9  C   UNL     1      -1.416   7.636  -5.075  0.00  0.00    +0.044 C 
ATOM     10  C   UNL     1      -1.938   7.198  -3.588  0.00  0.00    +0.004 C 
ATOM     11  C   UNL     1      -1.334   5.933  -3.164  0.00  0.00    +0.000 C 
ATOM     12  C   UNL     1      -1.392   5.802  -1.691  0.00  0.00    +0.000 C 
ATOM     13  C   UNL     1      -0.422   4.841  -1.076  0.00  0.00    +0.006 C 
ATOM     14  C   UNL     1       0.485   5.518  -0.040  0.00  0.00    +0.051 C 
ATOM     15  C   UNL     1      -0.337   6.627   0.488  0.00  0.00    +0.112 A 
ATOM     16  C   UNL     1      -0.146   7.853  -0.136  0.00  0.00    +0.239 A 
ATOM     17  O   UNL     1       0.882   7.864  -1.086  0.00  0.00    -0.461 OA
ATOM     18  C   UNL     1       2.160   7.371  -0.354  0.00  0.00    +0.189 C 
ATOM     19  N   UNL     1      -0.983   8.834   0.164  0.00  0.00    -0.209 NA
ATOM     20  C   UNL     1      -1.798   8.696   1.244  0.00  0.00    +0.105 A 
ATOM     21  C   UNL     1      -1.508   7.653   2.118  0.00  0.00    +0.099 A 
ATOM     22  C   UNL     1      -1.930   7.726   3.437  0.00  0.00    +0.024 A 
ATOM     23  C   UNL     1      -2.854   8.716   3.746  0.00  0.00    +0.039 A 
ATOM     24  C   UNL     1      -3.482   9.469   2.761  0.00  0.00    +0.140 A 
ATOM     25  C   UNL     1      -2.751   9.627   1.587  0.00  0.00    +0.058 A 
ATOM     26  N   UNL     1      -1.196   6.471   1.527  0.00  0.00    -0.243 NA
ATOM     27  C   UNL     1      -1.526   6.066  -5.756  0.00  0.00    +0.047 C 
ATOM     28  O   UNL     1       2.125   8.564  -7.176  0.00  0.00    -0.225 OA
ATOM     29  O   UNL     1       4.109   7.937  -4.570  0.00  0.00    -0.273 OA
ATOM     30  C   UNL     1       2.836   6.628  -1.639  0.00  0.00    +0.137 C 
ATOM     31  C   UNL     1       2.813   8.839  -0.583  0.00  0.00    +0.075 C 
ENDROOT
BRANCH   4  32
ATOM     32  C   UNL     1       3.361   4.906  -4.677  0.00  0.00    +0.027 C 
ATOM     33  C   UNL     1       4.549   5.422  -5.487  0.00  0.00    +0.002 C 
ATOM     34  C   UNL     1       2.704   3.875  -5.493  0.00  0.00    +0.002 C 
ATOM     35  C   UNL     1       3.862   4.527  -3.345  0.00  0.00    +0.002 C 
ENDBRANCH   4  32
BRANCH   1  37
ATOM     36  N   UNL     1       4.419   7.687   0.501  0.00  0.00    -0.198 NA
ATOM     37  C   UNL     1       4.787   7.567  -0.845  0.00  0.00    +0.260 C 
ATOM     38  O   UNL     1       6.039   7.694  -1.013  0.00  0.00    -0.272 OA
BRANCH  36  40
ATOM     39  C   UNL     1       5.587   6.630   2.562  0.00  0.00    +0.051 C 
ATOM     40  C   UNL     1       5.125   7.947   1.691  0.00  0.00    +0.156 C 
ATOM     41  C   UNL     1       6.560   7.183   1.342  0.00  0.00    +0.036 C 
BRANCH  40  42
ATOM     42  C   UNL     1       5.340   9.256   2.265  0.00  0.00    +0.291 C 
ATOM     43  N   UNL     1       6.076  10.183   1.720  0.00  0.00    -0.092 NA
ATOM     44  O   UNL     1       4.326   9.777   3.080  0.00  0.00    -0.267 OA
BRANCH  43  45
ATOM     45  S   UNL     1       5.826  11.858   1.882  0.00  0.00    +0.082 S 
ATOM     46  O   UNL     1       6.982  12.571   1.213  0.00  0.00    -0.151 OA
ATOM     47  O   UNL     1       5.775  12.344   3.287  0.00  0.00    -0.151 OA
BRANCH  45  48
ATOM     48  C   UNL     1       4.376  12.433   1.008  0.00  0.00    +0.153 C 
ATOM     49  C   UNL     1       4.729  13.456  -0.083  0.00  0.00    +0.028 C 
ATOM     50  C   UNL     1       4.350  12.068  -0.461  0.00  0.00    +0.028 C 
ENDBRANCH  45  48
ENDBRANCH  43  45
ENDBRANCH  40  42
BRANCH  39  52
ATOM     51  C   UNL     1       7.325   7.442   3.716  0.00  0.00    -0.005 C 
ATOM     52  C   UNL     1       6.431   7.411   3.736  0.00  0.00    -0.024 C 
ENDBRANCH  39  52
ENDBRANCH  36  40
ENDBRANCH   1  37
BRANCH  24  53
ATOM     53  O   UNL     1      -4.855   9.733   2.814  0.00  0.00    -0.471 OA
ATOM     54  C   UNL     1      -5.293  10.698   3.743  0.00  0.00    +0.252 C 
ENDBRANCH  24  53
TORSDOF 8
ENDMDL
MODEL 3
REMARK VINA RESULT:      -1.6      1.581      2.418
REMARK  Name = 
REMARK  8 active torsions:
REMARK  status: ('A' for Active; 'I' for Inactive)
REMARK    1  A    between atoms: C_2  and  C_3
REMARK    2  A    between atoms: C_5  and  N_6
REMARK    3  A    between atoms: C_5  and  C_46
REMARK    4  A    between atoms: C_7  and  C_9
REMARK    5  A    between atoms: C_16  and  C_17
REMARK    6  A    between atoms: C_38  and  O_39
REMARK    7  A    between atoms: N_48  and  S_49
REMARK    8  A    between atoms: S_49  and  C_52
REMARK                            x       y       z     vdW  Elec       q    Type
REMARK                         _______ _______ _______ _____ _____    ______ ____
ROOT
ATOM      1  C   UNL     1       2.703   7.704  -5.904  0.00  0.00    +0.157 C 
ATOM      2  N   UNL     1       1.517   6.963  -5.186  0.00  0.00    -0.268 N 
ATOM      3  C   UNL     1       0.279   6.711  -5.868  0.00  0.00    +0.246 C 
ATOM      4  C   UNL     1      -0.803   6.066  -4.864  0.00  0.00    +0.174 C 
ATOM      5  N   UNL     1      -2.061   6.705  -5.569  0.00  0.00    -0.161 NA
ATOM      6  C   UNL     1      -2.502   7.874  -4.899  0.00  0.00    +0.421 C 
ATOM      7  O   UNL     1      -2.879   7.663  -3.587  0.00  0.00    -0.437 OA
ATOM      8  C   UNL     1      -1.808   6.928  -2.741  0.00  0.00    +0.171 C 
ATOM      9  C   UNL     1      -1.897   8.121  -1.515  0.00  0.00    +0.044 C 
ATOM     10  C   UNL     1      -0.693   7.511  -0.592  0.00  0.00    +0.004 C 
ATOM     11  C   UNL     1      -0.411   6.116  -0.939  0.00  0.00    +0.000 C 
ATOM     12  C   UNL     1       0.949   5.739  -0.497  0.00  0.00    +0.000 C 
ATOM     13  C   UNL     1       1.559   4.552  -1.178  0.00  0.00    +0.006 C 
ATOM     14  C   UNL     1       2.892   4.897  -1.854  0.00  0.00    +0.051 C 
ATOM     15  C   UNL     1       3.434   6.004  -1.040  0.00  0.00    +0.112 A 
ATOM     16  C   UNL     1       3.137   7.279  -1.504  0.00  0.00    +0.239 A 
ATOM     17  O   UNL     1       2.471   7.305  -2.736  0.00  0.00    -0.461 OA
ATOM     18  C   UNL     1       3.361   6.509  -3.731  0.00  0.00    +0.189 C 
ATOM     19  N   UNL     1       3.432   8.305  -0.721  0.00  0.00    -0.209 NA
ATOM     20  C   UNL     1       4.245   8.101   0.351  0.00  0.00    +0.105 A 
ATOM     21  C   UNL     1       4.927   6.889   0.398  0.00  0.00    +0.099 A 
ATOM     22  C   UNL     1       6.100   6.791   1.131  0.00  0.00    +0.024 A 
ATOM     23  C   UNL     1       6.386   7.836   2.000  0.00  0.00    +0.039 A 
ATOM     24  C   UNL     1       5.459   8.835   2.280  0.00  0.00    +0.140 A 
ATOM     25  C   UNL     1       4.544   9.087   1.262  0.00  0.00    +0.058 A 
ATOM     26  N   UNL     1       4.193   5.797   0.065  0.00  0.00    -0.243 NA
ATOM     27  C   UNL     1      -2.893   6.728  -1.426  0.00  0.00    +0.047 C 
ATOM     28  O   UNL     1      -2.891   8.872  -5.547  0.00  0.00    -0.225 OA
ATOM     29  O   UNL     1      -0.085   7.512  -6.732  0.00  0.00    -0.273 OA
ATOM     30  C   UNL     1       2.140   5.912  -4.633  0.00  0.00    +0.137 C 
ATOM     31  C   UNL     1       3.595   7.881  -4.563  0.00  0.00    +0.075 C 
ENDROOT
BRANCH   4  32
ATOM     32  C   UNL     1      -0.984   4.691  -5.738  0.00  0.00    +0.027 C 
ATOM     33  C   UNL     1      -1.067   5.154  -7.191  0.00  0.00    +0.002 C 
ATOM     34  C   UNL     1      -2.278   4.075  -5.411  0.00  0.00    +0.002 C 
ATOM     35  C   UNL     1       0.232   3.872  -5.602  0.00  0.00    +0.002 C 
ENDBRANCH   4  32
BRANCH   1  37
ATOM     36  N   UNL     1       4.228   6.706  -7.581  0.00  0.00    -0.198 NA
ATOM     37  C   UNL     1       3.537   6.399  -6.402  0.00  0.00    +0.260 C 
ATOM     38  O   UNL     1       2.806   5.369  -6.530  0.00  0.00    -0.272 OA
BRANCH  36  40
ATOM     39  C   UNL     1       2.805   5.851  -9.574  0.00  0.00    +0.051 C 
ATOM     40  C   UNL     1       4.263   6.146  -8.871  0.00  0.00    +0.156 C 
ATOM     41  C   UNL     1       3.495   7.348  -9.725  0.00  0.00    +0.036 C 
BRANCH  40  42
ATOM     42  C   UNL     1       5.454   5.684  -9.548  0.00  0.00    +0.291 C 
ATOM     43  N   UNL     1       5.869   6.143 -10.695  0.00  0.00    -0.092 NA
ATOM     44  O   UNL     1       6.496   5.187  -8.753  0.00  0.00    -0.267 OA
BRANCH  43  45
ATOM     45  S   UNL     1       7.494   6.227 -11.190  0.00  0.00    +0.082 S 
ATOM     46  O   UNL     1       8.139   4.887 -10.910  0.00  0.00    -0.151 OA
ATOM     47  O   UNL     1       8.306   7.253 -10.481  0.00  0.00    -0.151 OA
BRANCH  45  48
ATOM     48  C   UNL     1       7.673   6.454 -12.955  0.00  0.00    +0.153 C 
ATOM     49  C   UNL     1       6.775   5.494 -13.752  0.00  0.00    +0.028 C 
ATOM     50  C   UNL     1       6.416   6.935 -13.650  0.00  0.00    +0.028 C 
ENDBRANCH  45  48
ENDBRANCH  43  45
ENDBRANCH  40  42
BRANCH  39  52
ATOM     51  C   UNL     1       2.795   5.253 -11.732  0.00  0.00    -0.005 C 
ATOM     52  C   UNL     1       3.351   5.333 -11.035  0.00  0.00    -0.024 C 
ENDBRANCH  39  52
ENDBRANCH  36  40
ENDBRANCH   1  37
BRANCH  24  53
ATOM     53  O   UNL     1       5.249   9.284   3.588  0.00  0.00    -0.471 OA
ATOM     54  C   UNL     1       4.620  10.535   3.750  0.00  0.00    +0.252 C 
ENDBRANCH  24  53
TORSDOF 8
ENDMDL
