MODEL 1
REMARK VINA RESULT:      -5.1      0.000      0.000
REMARK  Name = 
REMARK  4 active torsions:
REMARK  status: ('A' for Active; 'I' for Inactive)
REMARK    1  A    between atoms: C_2  and  O_3
REMARK    2  A    between atoms: O_3  and  C_4
REMARK    3  A    between atoms: C_4  and  C_5
REMARK    4  A    between atoms: C_4  and  C_9
REMARK                            x       y       z     vdW  Elec       q    Type
REMARK                         _______ _______ _______ _____ _____    ______ ____
ROOT
ATOM      1  C   UNL     1      -2.225   6.361  -4.507  0.00  0.00    +0.308 C 
ENDROOT
BRANCH   1   2
ATOM      2  C   UNL     1      -2.867   5.812  -3.287  0.00  0.00    +0.431 C 
ATOM      3  F   UNL     1      -2.007   5.718  -2.196  0.00  0.00    -0.167 F 
ATOM      4  F   UNL     1      -3.995   6.527  -2.922  0.00  0.00    -0.167 F 
ATOM      5  F   UNL     1      -3.321   4.529  -3.581  0.00  0.00    -0.167 F 
ENDBRANCH   1   2
BRANCH   1   6
ATOM      6  C   UNL     1      -1.984   7.821  -4.539  0.00  0.00    +0.431 C 
ATOM      7  F   UNL     1      -2.959   8.382  -5.360  0.00  0.00    -0.167 F 
ATOM      8  F   UNL     1      -2.117   8.442  -3.301  0.00  0.00    -0.167 F 
ATOM      9  F   UNL     1      -0.773   8.198  -5.050  0.00  0.00    -0.167 F 
ENDBRANCH   1   6
BRANCH   1  10
ATOM     10  O   UNL     1      -1.332   5.562  -5.147  0.00  0.00    -0.309 OA
BRANCH  10  12
ATOM     11  F   UNL     1      -2.964   5.486  -6.655  0.00  0.00    -0.198 F 
ATOM     12  C   UNL     1      -1.597   5.294  -6.470  0.00  0.00    +0.341 C 
ENDBRANCH  10  12
ENDBRANCH   1  10
TORSDOF 4
ENDMDL
MODEL 2
REMARK VINA RESULT:      -5.0      9.785     11.479
REMARK  Name = 
REMARK  4 active torsions:
REMARK  status: ('A' for Active; 'I' for Inactive)
REMARK    1  A    between atoms: C_2  and  O_3
REMARK    2  A    between atoms: O_3  and  C_4
REMARK    3  A    between atoms: C_4  and  C_5
REMARK    4  A    between atoms: C_4  and  C_9
REMARK                            x       y       z     vdW  Elec       q    Type
REMARK                         _______ _______ _______ _____ _____    ______ ____
ROOT
ATOM      1  C   UNL     1       6.569   6.234 -10.786  0.00  0.00    +0.308 C 
ENDROOT
BRANCH   1   2
ATOM      2  C   UNL     1       7.796   5.524 -11.226  0.00  0.00    +0.431 C 
ATOM      3  F   UNL     1       7.563   4.553 -12.195  0.00  0.00    -0.167 F 
ATOM      4  F   UNL     1       8.774   6.396 -11.674  0.00  0.00    -0.167 F 
ATOM      5  F   UNL     1       8.347   4.891 -10.115  0.00  0.00    -0.167 F 
ENDBRANCH   1   2
BRANCH   1   6
ATOM      6  C   UNL     1       6.415   7.639 -11.223  0.00  0.00    +0.431 C 
ATOM      7  F   UNL     1       5.151   8.061 -10.816  0.00  0.00    -0.167 F 
ATOM      8  F   UNL     1       7.322   8.516 -10.634  0.00  0.00    -0.167 F 
ATOM      9  F   UNL     1       6.481   7.838 -12.574  0.00  0.00    -0.167 F 
ENDBRANCH   1   6
BRANCH   1  10
ATOM     10  O   UNL     1       5.440   5.490 -10.650  0.00  0.00    -0.309 OA
BRANCH  10  12
ATOM     11  F   UNL     1       6.046   5.673  -8.519  0.00  0.00    -0.198 F 
ATOM     12  C   UNL     1       5.020   5.254  -9.362  0.00  0.00    +0.341 C 
ENDBRANCH  10  12
ENDBRANCH   1  10
TORSDOF 4
ENDMDL
MODEL 3
REMARK VINA RESULT:      -5.0     10.447     11.695
REMARK  Name = 
REMARK  4 active torsions:
REMARK  status: ('A' for Active; 'I' for Inactive)
REMARK    1  A    between atoms: C_2  and  O_3
REMARK    2  A    between atoms: O_3  and  C_4
REMARK    3  A    between atoms: C_4  and  C_5
REMARK    4  A    between atoms: C_4  and  C_9
REMARK                            x       y       z     vdW  Elec       q    Type
REMARK                         _______ _______ _______ _____ _____    ______ ____
ROOT
ATOM      1  C   UNL     1       6.789   5.804 -11.057  0.00  0.00    +0.308 C 
ENDROOT
BRANCH   1   2
ATOM      2  C   UNL     1       7.342   5.898  -9.684  0.00  0.00    +0.431 C 
ATOM      3  F   UNL     1       8.024   7.086  -9.435  0.00  0.00    -0.167 F 
ATOM      4  F   UNL     1       6.372   5.713  -8.713  0.00  0.00    -0.167 F 
ATOM      5  F   UNL     1       8.242   4.849  -9.512  0.00  0.00    -0.167 F 
ENDBRANCH   1   2
BRANCH   1   6
ATOM      6  C   UNL     1       6.018   6.968 -11.550  0.00  0.00    +0.431 C 
ATOM      7  F   UNL     1       5.003   7.211 -10.628  0.00  0.00    -0.167 F 
ATOM      8  F   UNL     1       6.758   8.144 -11.627  0.00  0.00    -0.167 F 
ATOM      9  F   UNL     1       5.414   6.792 -12.764  0.00  0.00    -0.167 F 
ENDBRANCH   1   6
BRANCH   1  10
ATOM     10  O   UNL     1       7.508   5.097 -11.967  0.00  0.00    -0.309 OA
BRANCH  10  12
ATOM     11  F   UNL     1       9.636   5.740 -11.990  0.00  0.00    -0.198 F 
ATOM     12  C   UNL     1       8.435   5.807 -12.692  0.00  0.00    +0.341 C 
ENDBRANCH  10  12
ENDBRANCH   1  10
TORSDOF 4
ENDMDL
MODEL 4
REMARK VINA RESULT:      -4.9      1.538      2.267
REMARK  Name = 
REMARK  4 active torsions:
REMARK  status: ('A' for Active; 'I' for Inactive)
REMARK    1  A    between atoms: C_2  and  O_3
REMARK    2  A    between atoms: O_3  and  C_4
REMARK    3  A    between atoms: C_4  and  C_5
REMARK    4  A    between atoms: C_4  and  C_9
REMARK                            x       y       z     vdW  Elec       q    Type
REMARK                         _______ _______ _______ _____ _____    ______ ____
ROOT
ATOM      1  C   UNL     1      -1.686   6.513  -3.587  0.00  0.00    +0.308 C 
ENDROOT
BRANCH   1   2
ATOM      2  C   UNL     1      -2.893   5.882  -2.999  0.00  0.00    +0.431 C 
ATOM      3  F   UNL     1      -3.882   6.794  -2.639  0.00  0.00    -0.167 F 
ATOM      4  F   UNL     1      -3.438   4.917  -3.829  0.00  0.00    -0.167 F 
ATOM      5  F   UNL     1      -2.505   5.202  -1.847  0.00  0.00    -0.167 F 
ENDBRANCH   1   2
BRANCH   1   6
ATOM      6  C   UNL     1      -1.893   7.742  -4.384  0.00  0.00    +0.431 C 
ATOM      7  F   UNL     1      -0.740   7.944  -5.139  0.00  0.00    -0.167 F 
ATOM      8  F   UNL     1      -2.941   7.654  -5.297  0.00  0.00    -0.167 F 
ATOM      9  F   UNL     1      -2.090   8.882  -3.654  0.00  0.00    -0.167 F 
ENDBRANCH   1   6
BRANCH   1  10
ATOM     10  O   UNL     1      -0.529   6.408  -2.883  0.00  0.00    -0.309 OA
BRANCH  10  12
ATOM     11  F   UNL     1      -0.098   5.017  -4.562  0.00  0.00    -0.198 F 
ATOM     12  C   UNL     1       0.371   5.470  -3.332  0.00  0.00    +0.341 C 
ENDBRANCH  10  12
ENDBRANCH   1  10
TORSDOF 4
ENDMDL
MODEL 5
REMARK VINA RESULT:      -4.9      1.365      3.555
REMARK  Name = 
REMARK  4 active torsions:
REMARK  status: ('A' for Active; 'I' for Inactive)
REMARK    1  A    between atoms: C_2  and  O_3
REMARK    2  A    between atoms: O_3  and  C_4
REMARK    3  A    between atoms: C_4  and  C_5
REMARK    4  A    between atoms: C_4  and  C_9
REMARK                            x       y       z     vdW  Elec       q    Type
REMARK                         _______ _______ _______ _____ _____    ______ ____
ROOT
ATOM      1  C   UNL     1      -1.693   6.500  -3.516  0.00  0.00    +0.308 C 
ENDROOT
BRANCH   1   2
ATOM      2  C   UNL     1      -1.915   7.686  -4.379  0.00  0.00    +0.431 C 
ATOM      3  F   UNL     1      -2.983   7.546  -5.261  0.00  0.00    -0.167 F 
ATOM      4  F   UNL     1      -2.078   8.848  -3.642  0.00  0.00    -0.167 F 
ATOM      5  F   UNL     1      -0.764   7.888  -5.136  0.00  0.00    -0.167 F 
ENDBRANCH   1   2
BRANCH   1   6
ATOM      6  C   UNL     1      -2.880   5.932  -2.839  0.00  0.00    +0.431 C 
ATOM      7  F   UNL     1      -3.446   5.002  -3.708  0.00  0.00    -0.167 F 
ATOM      8  F   UNL     1      -2.584   5.237  -1.670  0.00  0.00    -0.167 F 
ATOM      9  F   UNL     1      -3.862   6.834  -2.534  0.00  0.00    -0.167 F 
ENDBRANCH   1   6
BRANCH   1  10
ATOM     10  O   UNL     1      -0.711   5.638  -3.891  0.00  0.00    -0.309 OA
BRANCH  10  12
ATOM     11  F   UNL     1       0.272   4.615  -2.180  0.00  0.00    -0.198 F 
ATOM     12  C   UNL     1       0.423   5.637  -3.114  0.00  0.00    +0.341 C 
ENDBRANCH  10  12
ENDBRANCH   1  10
TORSDOF 4
ENDMDL
MODEL 6
REMARK VINA RESULT:      -4.9     10.063     11.678
REMARK  Name = 
REMARK  4 active torsions:
REMARK  status: ('A' for Active; 'I' for Inactive)
REMARK    1  A    between atoms: C_2  and  O_3
REMARK    2  A    between atoms: O_3  and  C_4
REMARK    3  A    between atoms: C_4  and  C_5
REMARK    4  A    between atoms: C_4  and  C_9
REMARK                            x       y       z     vdW  Elec       q    Type
REMARK                         _______ _______ _______ _____ _____    ______ ____
ROOT
ATOM      1  C   UNL     1       6.770   6.032 -10.966  0.00  0.00    +0.308 C 
ENDROOT
BRANCH   1   2
ATOM      2  C   UNL     1       7.423   5.864  -9.644  0.00  0.00    +0.431 C 
ATOM      3  F   UNL     1       8.267   4.760  -9.572  0.00  0.00    -0.167 F 
ATOM      4  F   UNL     1       8.116   6.999  -9.254  0.00  0.00    -0.167 F 
ATOM      5  F   UNL     1       6.423   5.697  -8.690  0.00  0.00    -0.167 F 
ENDBRANCH   1   2
BRANCH   1   6
ATOM      6  C   UNL     1       7.648   5.990 -12.156  0.00  0.00    +0.431 C 
ATOM      7  F   UNL     1       7.541   4.714 -12.704  0.00  0.00    -0.167 F 
ATOM      8  F   UNL     1       7.274   6.874 -13.165  0.00  0.00    -0.167 F 
ATOM      9  F   UNL     1       8.976   6.202 -11.907  0.00  0.00    -0.167 F 
ENDBRANCH   1   6
BRANCH   1  10
ATOM     10  O   UNL     1       5.509   5.545 -11.098  0.00  0.00    -0.309 OA
BRANCH  10  12
ATOM     11  F   UNL     1       5.041   7.711 -10.914  0.00  0.00    -0.198 F 
ATOM     12  C   UNL     1       4.517   6.478 -11.292  0.00  0.00    +0.341 C 
ENDBRANCH  10  12
ENDBRANCH   1  10
TORSDOF 4
ENDMDL
MODEL 7
REMARK VINA RESULT:      -4.8      1.042      3.434
REMARK  Name = 
REMARK  4 active torsions:
REMARK  status: ('A' for Active; 'I' for Inactive)
REMARK    1  A    between atoms: C_2  and  O_3
REMARK    2  A    between atoms: O_3  and  C_4
REMARK    3  A    between atoms: C_4  and  C_5
REMARK    4  A    between atoms: C_4  and  C_9
REMARK                            x       y       z     vdW  Elec       q    Type
REMARK                         _______ _______ _______ _____ _____    ______ ____
ROOT
ATOM      1  C   UNL     1      -2.287   6.358  -4.506  0.00  0.00    +0.308 C 
ENDROOT
BRANCH   1   2
ATOM      2  C   UNL     1      -2.066   7.820  -4.620  0.00  0.00    +0.431 C 
ATOM      3  F   UNL     1      -2.985   8.463  -5.445  0.00  0.00    -0.167 F 
ATOM      4  F   UNL     1      -2.042   8.445  -3.385  0.00  0.00    -0.167 F 
ATOM      5  F   UNL     1      -0.799   8.022  -5.160  0.00  0.00    -0.167 F 
ENDBRANCH   1   2
BRANCH   1   6
ATOM      6  C   UNL     1      -2.417   5.599  -5.770  0.00  0.00    +0.431 C 
ATOM      7  F   UNL     1      -3.320   4.564  -5.539  0.00  0.00    -0.167 F 
ATOM      8  F   UNL     1      -2.943   6.341  -6.823  0.00  0.00    -0.167 F 
ATOM      9  F   UNL     1      -1.263   5.021  -6.222  0.00  0.00    -0.167 F 
ENDBRANCH   1   6
BRANCH   1  10
ATOM     10  O   UNL     1      -1.710   5.726  -3.451  0.00  0.00    -0.309 OA
BRANCH  10  12
ATOM     11  F   UNL     1      -3.814   5.866  -2.747  0.00  0.00    -0.198 F 
ATOM     12  C   UNL     1      -2.542   5.421  -2.398  0.00  0.00    +0.341 C 
ENDBRANCH  10  12
ENDBRANCH   1  10
TORSDOF 4
ENDMDL
MODEL 8
REMARK VINA RESULT:      -4.7     10.214     11.704
REMARK  Name = 
REMARK  4 active torsions:
REMARK  status: ('A' for Active; 'I' for Inactive)
REMARK    1  A    between atoms: C_2  and  O_3
REMARK    2  A    between atoms: O_3  and  C_4
REMARK    3  A    between atoms: C_4  and  C_5
REMARK    4  A    between atoms: C_4  and  C_9
REMARK                            x       y       z     vdW  Elec       q    Type
REMARK                         _______ _______ _______ _____ _____    ______ ____
ROOT
ATOM      1  C   UNL     1       6.755   5.807 -11.684  0.00  0.00    +0.308 C 
ENDROOT
BRANCH   1   2
ATOM      2  C   UNL     1       5.514   5.920 -10.879  0.00  0.00    +0.431 C 
ATOM      3  F   UNL     1       5.654   5.471  -9.569  0.00  0.00    -0.167 F 
ATOM      4  F   UNL     1       5.010   7.210 -10.872  0.00  0.00    -0.167 F 
ATOM      5  F   UNL     1       4.534   5.144 -11.491  0.00  0.00    -0.167 F 
ENDBRANCH   1   2
BRANCH   1   6
ATOM      6  C   UNL     1       8.038   5.963 -10.964  0.00  0.00    +0.431 C 
ATOM      7  F   UNL     1       7.954   7.139 -10.221  0.00  0.00    -0.167 F 
ATOM      8  F   UNL     1       8.299   4.947 -10.049  0.00  0.00    -0.167 F 
ATOM      9  F   UNL     1       9.143   6.080 -11.762  0.00  0.00    -0.167 F 
ENDBRANCH   1   6
BRANCH   1  10
ATOM     10  O   UNL     1       6.729   4.957 -12.744  0.00  0.00    -0.309 OA
BRANCH  10  12
ATOM     11  F   UNL     1       6.794   6.917 -13.791  0.00  0.00    -0.198 F 
ATOM     12  C   UNL     1       6.745   5.540 -13.990  0.00  0.00    +0.341 C 
ENDBRANCH  10  12
ENDBRANCH   1  10
TORSDOF 4
ENDMDL
MODEL 9
REMARK VINA RESULT:      -4.7      9.998     11.785
REMARK  Name = 
REMARK  4 active torsions:
REMARK  status: ('A' for Active; 'I' for Inactive)
REMARK    1  A    between atoms: C_2  and  O_3
REMARK    2  A    between atoms: O_3  and  C_4
REMARK    3  A    between atoms: C_4  and  C_5
REMARK    4  A    between atoms: C_4  and  C_9
REMARK                            x       y       z     vdW  Elec       q    Type
REMARK                         _______ _______ _______ _____ _____    ______ ____
ROOT
ATOM      1  C   UNL     1       6.721   6.263 -11.085  0.00  0.00    +0.308 C 
ENDROOT
BRANCH   1   2
ATOM      2  C   UNL     1       7.528   6.094 -12.318  0.00  0.00    +0.431 C 
ATOM      3  F   UNL     1       8.872   6.419 -12.156  0.00  0.00    -0.167 F 
ATOM      4  F   UNL     1       7.425   4.815 -12.840  0.00  0.00    -0.167 F 
ATOM      5  F   UNL     1       7.003   6.935 -13.295  0.00  0.00    -0.167 F 
ENDBRANCH   1   2
BRANCH   1   6
ATOM      6  C   UNL     1       7.383   5.947  -9.801  0.00  0.00    +0.431 C 
ATOM      7  F   UNL     1       8.104   7.075  -9.418  0.00  0.00    -0.167 F 
ATOM      8  F   UNL     1       6.498   5.684  -8.758  0.00  0.00    -0.167 F 
ATOM      9  F   UNL     1       8.272   4.908  -9.846  0.00  0.00    -0.167 F 
ENDBRANCH   1   6
BRANCH   1  10
ATOM     10  O   UNL     1       5.794   7.257 -11.086  0.00  0.00    -0.309 OA
BRANCH  10  12
ATOM     11  F   UNL     1       4.064   7.282  -9.689  0.00  0.00    -0.198 F 
ATOM     12  C   UNL     1       4.483   6.864 -10.950  0.00  0.00    +0.341 C 
ENDBRANCH  10  12
ENDBRANCH   1  10
TORSDOF 4
ENDMDL
