MODEL 1
REMARK VINA RESULT:      -9.1      0.000      0.000
REMARK  Name = 
REMARK  5 active torsions:
REMARK  status: ('A' for Active; 'I' for Inactive)
REMARK    1  A    between atoms: N_2  and  C_3
REMARK    2  A    between atoms: N_2  and  C_12
REMARK    3  A    between atoms: C_3  and  C_4
REMARK    4  A    between atoms: C_5  and  C_6
REMARK    5  A    between atoms: C_12  and  C_13
REMARK                            x       y       z     vdW  Elec       q    Type
REMARK                         _______ _______ _______ _____ _____    ______ ____
ROOT
ATOM      1  C   UNL     1       3.145   4.995  -4.151  0.00  0.00    +0.090 C 
ATOM      2  N   UNL     1       3.073   5.381  -5.554  0.00  0.00    -0.264 NA
ENDROOT
BRANCH   2   3
ATOM      3  C   UNL     1       2.267   6.555  -5.767  0.00  0.00    +0.099 C 
BRANCH   3   4
ATOM      4  C   UNL     1       1.029   6.137  -6.455  0.00  0.00    -0.006 A 
ATOM      5  C   UNL     1      -0.187   6.477  -5.910  0.00  0.00    -0.003 A 
ATOM      6  C   UNL     1      -1.286   5.774  -6.355  0.00  0.00    -0.000 A 
ATOM      7  C   UNL     1      -2.486   5.917  -5.670  0.00  0.00    -0.000 A 
ATOM      8  C   UNL     1      -2.652   6.956  -4.762  0.00  0.00    -0.000 A 
ATOM      9  C   UNL     1      -1.596   7.811  -4.478  0.00  0.00    -0.000 A 
ATOM     10  C   UNL     1      -1.209   5.177  -7.601  0.00  0.00    -0.000 A 
ATOM     11  C   UNL     1      -0.109   5.435  -8.409  0.00  0.00    -0.000 A 
ATOM     12  C   UNL     1      -0.337   7.369  -4.864  0.00  0.00    -0.000 A 
ATOM     13  C   UNL     1       1.066   5.885  -7.821  0.00  0.00    -0.003 A 
ENDBRANCH   3   4
ENDBRANCH   2   3
BRANCH   2  14
ATOM     14  C   UNL     1       4.431   5.566  -6.015  0.00  0.00    +0.099 C 
BRANCH  14  15
ATOM     15  C   UNL     1       4.484   5.742  -7.483  0.00  0.00    -0.009 C 
ATOM     16  C   UNL     1       5.443   5.147  -8.191  0.00  0.00    -0.003 C 
BRANCH  16  17
ATOM     17  C   UNL     1       5.914   5.702  -9.465  0.00  0.00    -0.000 A 
ATOM     18  C   UNL     1       7.265   5.865  -9.694  0.00  0.00    -0.000 A 
ATOM     19  C   UNL     1       7.749   6.945 -10.400  0.00  0.00    -0.000 A 
ATOM     20  C   UNL     1       6.876   7.796 -11.063  0.00  0.00    -0.000 A 
ATOM     21  C   UNL     1       5.543   7.413 -11.134  0.00  0.00    -0.000 A 
ATOM     22  C   UNL     1       5.057   6.432 -10.279  0.00  0.00    -0.000 A 
ENDBRANCH  16  17
ENDBRANCH  14  15
ENDBRANCH   2  14
TORSDOF 5
ENDMDL
MODEL 2
REMARK VINA RESULT:      -8.9      1.721      3.376
REMARK  Name = 
REMARK  5 active torsions:
REMARK  status: ('A' for Active; 'I' for Inactive)
REMARK    1  A    between atoms: N_2  and  C_3
REMARK    2  A    between atoms: N_2  and  C_12
REMARK    3  A    between atoms: C_3  and  C_4
REMARK    4  A    between atoms: C_5  and  C_6
REMARK    5  A    between atoms: C_12  and  C_13
REMARK                            x       y       z     vdW  Elec       q    Type
REMARK                         _______ _______ _______ _____ _____    ______ ____
ROOT
ATOM      1  C   UNL     1      -0.135   7.011 -10.977  0.00  0.00    +0.090 C 
ATOM      2  N   UNL     1       0.867   6.177 -10.329  0.00  0.00    -0.264 NA
ENDROOT
BRANCH   2   3
ATOM      3  C   UNL     1       0.297   5.263  -9.374  0.00  0.00    +0.099 C 
BRANCH   3   4
ATOM      4  C   UNL     1       0.723   5.689  -8.026  0.00  0.00    -0.006 A 
ATOM      5  C   UNL     1      -0.224   5.838  -7.041  0.00  0.00    -0.003 A 
ATOM      6  C   UNL     1       0.140   6.575  -5.934  0.00  0.00    -0.000 A 
ATOM      7  C   UNL     1      -0.847   6.947  -5.031  0.00  0.00    -0.000 A 
ATOM      8  C   UNL     1      -2.099   6.344  -5.078  0.00  0.00    -0.000 A 
ATOM      9  C   UNL     1      -2.394   5.422  -6.073  0.00  0.00    -0.000 A 
ATOM     10  C   UNL     1       1.490   6.678  -5.643  0.00  0.00    -0.000 A 
ATOM     11  C   UNL     1       2.399   5.921  -6.370  0.00  0.00    -0.000 A 
ATOM     12  C   UNL     1      -1.534   5.412  -7.164  0.00  0.00    -0.000 A 
ATOM     13  C   UNL     1       2.030   5.446  -7.622  0.00  0.00    -0.003 A 
ENDBRANCH   3   4
ENDBRANCH   2   3
BRANCH   2  14
ATOM     14  C   UNL     1       1.589   5.488 -11.375  0.00  0.00    +0.099 C 
BRANCH  14  15
ATOM     15  C   UNL     1       2.999   5.931 -11.440  0.00  0.00    -0.009 C 
ATOM     16  C   UNL     1       3.886   5.458 -10.566  0.00  0.00    -0.003 C 
BRANCH  16  17
ATOM     17  C   UNL     1       5.075   6.229 -10.184  0.00  0.00    -0.000 A 
ATOM     18  C   UNL     1       5.390   7.396 -10.851  0.00  0.00    -0.000 A 
ATOM     19  C   UNL     1       6.698   7.746 -11.108  0.00  0.00    -0.000 A 
ATOM     20  C   UNL     1       7.739   7.030 -10.533  0.00  0.00    -0.000 A 
ATOM     21  C   UNL     1       7.410   6.087  -9.569  0.00  0.00    -0.000 A 
ATOM     22  C   UNL     1       6.101   5.635  -9.459  0.00  0.00    -0.000 A 
ENDBRANCH  16  17
ENDBRANCH  14  15
ENDBRANCH   2  14
TORSDOF 5
ENDMDL
MODEL 3
REMARK VINA RESULT:      -8.7      1.187      2.381
REMARK  Name = 
REMARK  5 active torsions:
REMARK  status: ('A' for Active; 'I' for Inactive)
REMARK    1  A    between atoms: N_2  and  C_3
REMARK    2  A    between atoms: N_2  and  C_12
REMARK    3  A    between atoms: C_3  and  C_4
REMARK    4  A    between atoms: C_5  and  C_6
REMARK    5  A    between atoms: C_12  and  C_13
REMARK                            x       y       z     vdW  Elec       q    Type
REMARK                         _______ _______ _______ _____ _____    ______ ____
ROOT
ATOM      1  C   UNL     1       2.778   7.146  -6.186  0.00  0.00    +0.090 C 
ATOM      2  N   UNL     1       3.174   5.962  -5.436  0.00  0.00    -0.264 NA
ENDROOT
BRANCH   2   3
ATOM      3  C   UNL     1       2.153   4.947  -5.419  0.00  0.00    +0.099 C 
BRANCH   3   4
ATOM      4  C   UNL     1       1.037   5.437  -4.587  0.00  0.00    -0.006 A 
ATOM      5  C   UNL     1      -0.201   5.605  -5.160  0.00  0.00    -0.003 A 
ATOM      6  C   UNL     1      -1.101   6.396  -4.477  0.00  0.00    -0.000 A 
ATOM      7  C   UNL     1      -2.268   6.782  -5.123  0.00  0.00    -0.000 A 
ATOM      8  C   UNL     1      -2.658   6.150  -6.297  0.00  0.00    -0.000 A 
ATOM      9  C   UNL     1      -1.846   5.181  -6.872  0.00  0.00    -0.000 A 
ATOM     10  C   UNL     1      -0.924   6.543  -3.112  0.00  0.00    -0.000 A 
ATOM     11  C   UNL     1       0.039   5.777  -2.467  0.00  0.00    -0.000 A 
ATOM     12  C   UNL     1      -0.532   5.145  -6.421  0.00  0.00    -0.000 A 
ATOM     13  C   UNL     1       1.082   5.242  -3.212  0.00  0.00    -0.003 A 
ENDBRANCH   3   4
ENDBRANCH   2   3
BRANCH   2  14
ATOM     14  C   UNL     1       4.407   5.482  -6.019  0.00  0.00    +0.099 C 
BRANCH  14  15
ATOM     15  C   UNL     1       4.460   5.756  -7.472  0.00  0.00    -0.009 C 
ATOM     16  C   UNL     1       5.316   5.089  -8.244  0.00  0.00    -0.003 C 
BRANCH  16  17
ATOM     17  C   UNL     1       5.839   5.665  -9.489  0.00  0.00    -0.000 A 
ATOM     18  C   UNL     1       7.198   5.845  -9.654  0.00  0.00    -0.000 A 
ATOM     19  C   UNL     1       7.702   6.940 -10.322  0.00  0.00    -0.000 A 
ATOM     20  C   UNL     1       6.851   7.790 -11.013  0.00  0.00    -0.000 A 
ATOM     21  C   UNL     1       5.526   7.395 -11.150  0.00  0.00    -0.000 A 
ATOM     22  C   UNL     1       5.012   6.398 -10.331  0.00  0.00    -0.000 A 
ENDBRANCH  16  17
ENDBRANCH  14  15
ENDBRANCH   2  14
TORSDOF 5
ENDMDL
MODEL 4
REMARK VINA RESULT:      -8.7      1.604      7.927
REMARK  Name = 
REMARK  5 active torsions:
REMARK  status: ('A' for Active; 'I' for Inactive)
REMARK    1  A    between atoms: N_2  and  C_3
REMARK    2  A    between atoms: N_2  and  C_12
REMARK    3  A    between atoms: C_3  and  C_4
REMARK    4  A    between atoms: C_5  and  C_6
REMARK    5  A    between atoms: C_12  and  C_13
REMARK                            x       y       z     vdW  Elec       q    Type
REMARK                         _______ _______ _______ _____ _____    ______ ____
ROOT
ATOM      1  C   UNL     1       1.244   4.913 -11.815  0.00  0.00    +0.090 C 
ATOM      2  N   UNL     1       1.545   5.465 -10.502  0.00  0.00    -0.264 NA
ENDROOT
BRANCH   2   3
ATOM      3  C   UNL     1       2.539   6.505 -10.551  0.00  0.00    +0.099 C 
BRANCH   3   4
ATOM      4  C   UNL     1       3.687   6.076  -9.728  0.00  0.00    -0.006 A 
ATOM      5  C   UNL     1       4.954   6.468 -10.092  0.00  0.00    -0.003 A 
ATOM      6  C   UNL     1       6.005   5.764  -9.542  0.00  0.00    -0.000 A 
ATOM      7  C   UNL     1       7.279   5.967 -10.056  0.00  0.00    -0.000 A 
ATOM      8  C   UNL     1       7.534   7.055 -10.880  0.00  0.00    -0.000 A 
ATOM      9  C   UNL     1       6.502   7.904 -11.258  0.00  0.00    -0.000 A 
ATOM     10  C   UNL     1       5.782   5.100  -8.348  0.00  0.00    -0.000 A 
ATOM     11  C   UNL     1       4.580   5.293  -7.680  0.00  0.00    -0.000 A 
ATOM     12  C   UNL     1       5.215   7.417 -11.063  0.00  0.00    -0.000 A 
ATOM     13  C   UNL     1       3.480   5.751  -8.394  0.00  0.00    -0.003 A 
ENDBRANCH   3   4
ENDBRANCH   2   3
BRANCH   2  14
ATOM     14  C   UNL     1       0.297   5.934  -9.942  0.00  0.00    +0.099 C 
BRANCH  14  15
ATOM     15  C   UNL     1       0.305   5.855  -8.464  0.00  0.00    -0.009 C 
ATOM     16  C   UNL     1      -0.739   5.338  -7.819  0.00  0.00    -0.003 C 
BRANCH  16  17
ATOM     17  C   UNL     1      -1.070   5.739  -6.446  0.00  0.00    -0.000 A 
ATOM     18  C   UNL     1      -2.368   6.070  -6.114  0.00  0.00    -0.000 A 
ATOM     19  C   UNL     1      -2.644   7.080  -5.217  0.00  0.00    -0.000 A 
ATOM     20  C   UNL     1      -1.621   7.660  -4.480  0.00  0.00    -0.000 A 
ATOM     21  C   UNL     1      -0.368   7.066  -4.551  0.00  0.00    -0.000 A 
ATOM     22  C   UNL     1      -0.078   6.179  -5.579  0.00  0.00    -0.000 A 
ENDBRANCH  16  17
ENDBRANCH  14  15
ENDBRANCH   2  14
TORSDOF 5
ENDMDL
MODEL 5
REMARK VINA RESULT:      -8.7      2.888      5.013
REMARK  Name = 
REMARK  5 active torsions:
REMARK  status: ('A' for Active; 'I' for Inactive)
REMARK    1  A    between atoms: N_2  and  C_3
REMARK    2  A    between atoms: N_2  and  C_12
REMARK    3  A    between atoms: C_3  and  C_4
REMARK    4  A    between atoms: C_5  and  C_6
REMARK    5  A    between atoms: C_12  and  C_13
REMARK                            x       y       z     vdW  Elec       q    Type
REMARK                         _______ _______ _______ _____ _____    ______ ____
ROOT
ATOM      1  C   UNL     1       3.187   6.908  -6.807  0.00  0.00    +0.090 C 
ATOM      2  N   UNL     1       3.424   6.044  -7.954  0.00  0.00    -0.264 NA
ENDROOT
BRANCH   2   3
ATOM      3  C   UNL     1       3.308   6.740  -9.209  0.00  0.00    +0.099 C 
BRANCH   3   4
ATOM      4  C   UNL     1       2.169   6.160  -9.948  0.00  0.00    -0.006 A 
ATOM      5  C   UNL     1       2.308   5.893 -11.289  0.00  0.00    -0.003 A 
ATOM      6  C   UNL     1       1.147   5.712 -12.011  0.00  0.00    -0.000 A 
ATOM      7  C   UNL     1       1.228   5.674 -13.397  0.00  0.00    -0.000 A 
ATOM      8  C   UNL     1       2.460   5.519 -14.020  0.00  0.00    -0.000 A 
ATOM      9  C   UNL     1       3.625   5.476 -13.266  0.00  0.00    -0.000 A 
ATOM     10  C   UNL     1       0.014   5.316 -11.322  0.00  0.00    -0.000 A 
ATOM     11  C   UNL     1       0.123   4.969  -9.981  0.00  0.00    -0.000 A 
ATOM     12  C   UNL     1       3.517   5.933 -11.958  0.00  0.00    -0.000 A 
ATOM     13  C   UNL     1       1.206   5.440  -9.251  0.00  0.00    -0.003 A 
ENDBRANCH   3   4
ENDBRANCH   2   3
BRANCH   2  14
ATOM     14  C   UNL     1       4.733   5.455  -7.780  0.00  0.00    +0.099 C 
BRANCH  14  15
ATOM     15  C   UNL     1       5.455   5.352  -9.068  0.00  0.00    -0.009 C 
ATOM     16  C   UNL     1       6.718   5.764  -9.158  0.00  0.00    -0.003 C 
BRANCH  16  17
ATOM     17  C   UNL     1       7.284   6.237 -10.427  0.00  0.00    -0.000 A 
ATOM     18  C   UNL     1       6.826   7.407 -10.998  0.00  0.00    -0.000 A 
ATOM     19  C   UNL     1       6.703   7.539 -12.365  0.00  0.00    -0.000 A 
ATOM     20  C   UNL     1       7.219   6.567 -13.210  0.00  0.00    -0.000 A 
ATOM     21  C   UNL     1       8.005   5.576 -12.639  0.00  0.00    -0.000 A 
ATOM     22  C   UNL     1       7.966   5.365 -11.267  0.00  0.00    -0.000 A 
ENDBRANCH  16  17
ENDBRANCH  14  15
ENDBRANCH   2  14
TORSDOF 5
ENDMDL
MODEL 6
REMARK VINA RESULT:      -8.6      2.897      7.197
REMARK  Name = 
REMARK  5 active torsions:
REMARK  status: ('A' for Active; 'I' for Inactive)
REMARK    1  A    between atoms: N_2  and  C_3
REMARK    2  A    between atoms: N_2  and  C_12
REMARK    3  A    between atoms: C_3  and  C_4
REMARK    4  A    between atoms: C_5  and  C_6
REMARK    5  A    between atoms: C_12  and  C_13
REMARK                            x       y       z     vdW  Elec       q    Type
REMARK                         _______ _______ _______ _____ _____    ______ ____
ROOT
ATOM      1  C   UNL     1       2.161   7.039  -8.103  0.00  0.00    +0.090 C 
ATOM      2  N   UNL     1       1.807   6.087  -7.060  0.00  0.00    -0.264 NA
ENDROOT
BRANCH   2   3
ATOM      3  C   UNL     1       1.676   6.702  -5.765  0.00  0.00    +0.099 C 
BRANCH   3   4
ATOM      4  C   UNL     1       2.634   6.049  -4.852  0.00  0.00    -0.006 A 
ATOM      5  C   UNL     1       2.202   5.639  -3.612  0.00  0.00    -0.003 A 
ATOM      6  C   UNL     1       3.175   5.383  -2.668  0.00  0.00    -0.000 A 
ATOM      7  C   UNL     1       2.784   5.197  -1.349  0.00  0.00    -0.000 A 
ATOM      8  C   UNL     1       1.448   4.973  -1.041  0.00  0.00    -0.000 A 
ATOM      9  C   UNL     1       0.484   5.010  -2.040  0.00  0.00    -0.000 A 
ATOM     10  C   UNL     1       4.444   5.065  -3.120  0.00  0.00    -0.000 A 
ATOM     11  C   UNL     1       4.649   4.864  -4.478  0.00  0.00    -0.000 A 
ATOM     12  C   UNL     1       0.873   5.605  -3.234  0.00  0.00    -0.000 A 
ATOM     13  C   UNL     1       3.746   5.409  -5.383  0.00  0.00    -0.003 A 
ENDBRANCH   3   4
ENDBRANCH   2   3
BRANCH   2  14
ATOM     14  C   UNL     1       0.585   5.434  -7.476  0.00  0.00    +0.099 C 
BRANCH  14  15
ATOM     15  C   UNL     1      -0.370   5.310  -6.352  0.00  0.00    -0.009 C 
ATOM     16  C   UNL     1      -1.598   5.813  -6.464  0.00  0.00    -0.003 C 
BRANCH  16  17
ATOM     17  C   UNL     1      -2.359   6.250  -5.287  0.00  0.00    -0.000 A 
ATOM     18  C   UNL     1      -2.179   7.520  -4.776  0.00  0.00    -0.000 A 
ATOM     19  C   UNL     1      -2.213   7.760  -3.419  0.00  0.00    -0.000 A 
ATOM     20  C   UNL     1      -2.621   6.764  -2.543  0.00  0.00    -0.000 A 
ATOM     21  C   UNL     1      -3.154   5.606  -3.095  0.00  0.00    -0.000 A 
ATOM     22  C   UNL     1      -2.947   5.320  -4.438  0.00  0.00    -0.000 A 
ENDBRANCH  16  17
ENDBRANCH  14  15
ENDBRANCH   2  14
TORSDOF 5
ENDMDL
MODEL 7
REMARK VINA RESULT:      -8.6      1.106      7.370
REMARK  Name = 
REMARK  5 active torsions:
REMARK  status: ('A' for Active; 'I' for Inactive)
REMARK    1  A    between atoms: N_2  and  C_3
REMARK    2  A    between atoms: N_2  and  C_12
REMARK    3  A    between atoms: C_3  and  C_4
REMARK    4  A    between atoms: C_5  and  C_6
REMARK    5  A    between atoms: C_12  and  C_13
REMARK                            x       y       z     vdW  Elec       q    Type
REMARK                         _______ _______ _______ _____ _____    ______ ____
ROOT
ATOM      1  C   UNL     1       4.481   6.577  -5.329  0.00  0.00    +0.090 C 
ATOM      2  N   UNL     1       3.846   5.682  -6.286  0.00  0.00    -0.264 NA
ENDROOT
BRANCH   2   3
ATOM      3  C   UNL     1       4.781   5.110  -7.219  0.00  0.00    +0.099 C 
BRANCH   3   4
ATOM      4  C   UNL     1       4.404   5.557  -8.574  0.00  0.00    -0.006 A 
ATOM      5  C   UNL     1       5.388   5.975  -9.439  0.00  0.00    -0.003 A 
ATOM      6  C   UNL     1       4.984   6.718 -10.527  0.00  0.00    -0.000 A 
ATOM      7  C   UNL     1       5.954   7.354 -11.291  0.00  0.00    -0.000 A 
ATOM      8  C   UNL     1       7.293   7.009 -11.149  0.00  0.00    -0.000 A 
ATOM      9  C   UNL     1       7.677   6.081 -10.190  0.00  0.00    -0.000 A 
ATOM     10  C   UNL     1       3.676   6.578 -10.955  0.00  0.00    -0.000 A 
ATOM     11  C   UNL     1       2.877   5.596 -10.383  0.00  0.00    -0.000 A 
ATOM     12  C   UNL     1       6.740   5.808  -9.201  0.00  0.00    -0.000 A 
ATOM     13  C   UNL     1       3.218   5.097  -9.133  0.00  0.00    -0.003 A 
ENDBRANCH   3   4
ENDBRANCH   2   3
BRANCH   2  14
ATOM     14  C   UNL     1       3.151   4.668  -5.523  0.00  0.00    +0.099 C 
BRANCH  14  15
ATOM     15  C   UNL     1       1.753   5.064  -5.246  0.00  0.00    -0.009 C 
ATOM     16  C   UNL     1       0.860   5.090  -6.235  0.00  0.00    -0.003 C 
BRANCH  16  17
ATOM     17  C   UNL     1      -0.305   5.982  -6.195  0.00  0.00    -0.000 A 
ATOM     18  C   UNL     1      -0.307   7.084  -5.365  0.00  0.00    -0.000 A 
ATOM     19  C   UNL     1      -1.454   7.494  -4.719  0.00  0.00    -0.000 A 
ATOM     20  C   UNL     1      -2.678   6.924  -5.038  0.00  0.00    -0.000 A 
ATOM     21  C   UNL     1      -2.721   6.076  -6.137  0.00  0.00    -0.000 A 
ATOM     22  C   UNL     1      -1.544   5.548  -6.651  0.00  0.00    -0.000 A 
ENDBRANCH  16  17
ENDBRANCH  14  15
ENDBRANCH   2  14
TORSDOF 5
ENDMDL
MODEL 8
REMARK VINA RESULT:      -8.5      1.451      2.838
REMARK  Name = 
REMARK  5 active torsions:
REMARK  status: ('A' for Active; 'I' for Inactive)
REMARK    1  A    between atoms: N_2  and  C_3
REMARK    2  A    between atoms: N_2  and  C_12
REMARK    3  A    between atoms: C_3  and  C_4
REMARK    4  A    between atoms: C_5  and  C_6
REMARK    5  A    between atoms: C_12  and  C_13
REMARK                            x       y       z     vdW  Elec       q    Type
REMARK                         _______ _______ _______ _____ _____    ______ ____
ROOT
ATOM      1  C   UNL     1       2.649   5.285  -9.583  0.00  0.00    +0.090 C 
ATOM      2  N   UNL     1       2.793   5.473  -8.146  0.00  0.00    -0.264 NA
ENDROOT
BRANCH   2   3
ATOM      3  C   UNL     1       2.044   4.512  -7.380  0.00  0.00    +0.099 C 
BRANCH   3   4
ATOM      4  C   UNL     1       1.626   5.159  -6.121  0.00  0.00    -0.006 A 
ATOM      5  C   UNL     1       0.315   5.544  -5.969  0.00  0.00    -0.003 A 
ATOM      6  C   UNL     1       0.046   6.456  -4.970  0.00  0.00    -0.000 A 
ATOM      7  C   UNL     1      -1.210   7.046  -4.932  0.00  0.00    -0.000 A 
ATOM      8  C   UNL     1      -2.253   6.517  -5.683  0.00  0.00    -0.000 A 
ATOM      9  C   UNL     1      -2.028   5.443  -6.532  0.00  0.00    -0.000 A 
ATOM     10  C   UNL     1       0.937   6.535  -3.913  0.00  0.00    -0.000 A 
ATOM     11  C   UNL     1       1.963   5.604  -3.820  0.00  0.00    -0.000 A 
ATOM     12  C   UNL     1      -0.698   5.178  -6.836  0.00  0.00    -0.000 A 
ATOM     13  C   UNL     1       2.359   4.923  -4.964  0.00  0.00    -0.003 A 
ENDBRANCH   3   4
ENDBRANCH   2   3
BRANCH   2  14
ATOM     14  C   UNL     1       4.208   5.419  -7.849  0.00  0.00    +0.099 C 
BRANCH  14  15
ATOM     15  C   UNL     1       5.017   5.370  -9.087  0.00  0.00    -0.009 C 
ATOM     16  C   UNL     1       6.323   5.626  -9.038  0.00  0.00    -0.003 C 
BRANCH  16  17
ATOM     17  C   UNL     1       7.045   6.162 -10.198  0.00  0.00    -0.000 A 
ATOM     18  C   UNL     1       6.505   7.198 -10.934  0.00  0.00    -0.000 A 
ATOM     19  C   UNL     1       6.653   7.259 -12.303  0.00  0.00    -0.000 A 
ATOM     20  C   UNL     1       7.511   6.384 -12.954  0.00  0.00    -0.000 A 
ATOM     21  C   UNL     1       8.331   5.589 -12.165  0.00  0.00    -0.000 A 
ATOM     22  C   UNL     1       8.043   5.418 -10.817  0.00  0.00    -0.000 A 
ENDBRANCH  16  17
ENDBRANCH  14  15
ENDBRANCH   2  14
TORSDOF 5
ENDMDL
MODEL 9
REMARK VINA RESULT:      -8.3      1.507      7.945
REMARK  Name = 
REMARK  5 active torsions:
REMARK  status: ('A' for Active; 'I' for Inactive)
REMARK    1  A    between atoms: N_2  and  C_3
REMARK    2  A    between atoms: N_2  and  C_12
REMARK    3  A    between atoms: C_3  and  C_4
REMARK    4  A    between atoms: C_5  and  C_6
REMARK    5  A    between atoms: C_12  and  C_13
REMARK                            x       y       z     vdW  Elec       q    Type
REMARK                         _______ _______ _______ _____ _____    ______ ____
ROOT
ATOM      1  C   UNL     1       0.580   4.813 -10.137  0.00  0.00    +0.090 C 
ATOM      2  N   UNL     1       0.547   5.373  -8.793  0.00  0.00    -0.264 NA
ENDROOT
BRANCH   2   3
ATOM      3  C   UNL     1       1.269   6.614  -8.689  0.00  0.00    +0.099 C 
BRANCH   3   4
ATOM      4  C   UNL     1       2.465   6.377  -7.858  0.00  0.00    -0.006 A 
ATOM      5  C   UNL     1       3.685   6.218  -8.472  0.00  0.00    -0.003 A 
ATOM      6  C   UNL     1       4.689   5.641  -7.722  0.00  0.00    -0.000 A 
ATOM      7  C   UNL     1       5.855   5.250  -8.366  0.00  0.00    -0.000 A 
ATOM      8  C   UNL     1       6.125   5.696  -9.653  0.00  0.00    -0.000 A 
ATOM      9  C   UNL     1       5.198   6.474 -10.333  0.00  0.00    -0.000 A 
ATOM     10  C   UNL     1       4.592   5.723  -6.344  0.00  0.00    -0.000 A 
ATOM     11  C   UNL     1       3.592   6.504  -5.780  0.00  0.00    -0.000 A 
ATOM     12  C   UNL     1       3.910   6.475  -9.812  0.00  0.00    -0.000 A 
ATOM     13  C   UNL     1       2.468   6.807  -6.537  0.00  0.00    -0.003 A 
ENDBRANCH   3   4
ENDBRANCH   2   3
BRANCH   2  14
ATOM     14  C   UNL     1      -0.844   5.522  -8.428  0.00  0.00    +0.099 C 
BRANCH  14  15
ATOM     15  C   UNL     1      -1.060   5.235  -6.992  0.00  0.00    -0.009 C 
ATOM     16  C   UNL     1      -2.024   5.866  -6.325  0.00  0.00    -0.003 C 
BRANCH  16  17
ATOM     17  C   UNL     1      -1.936   6.092  -4.877  0.00  0.00    -0.000 A 
ATOM     18  C   UNL     1      -2.508   5.196  -3.998  0.00  0.00    -0.000 A 
ATOM     19  C   UNL     1      -3.114   5.618  -2.834  0.00  0.00    -0.000 A 
ATOM     20  C   UNL     1      -2.994   6.938  -2.422  0.00  0.00    -0.000 A 
ATOM     21  C   UNL     1      -2.107   7.747  -3.121  0.00  0.00    -0.000 A 
ATOM     22  C   UNL     1      -1.654   7.357  -4.375  0.00  0.00    -0.000 A 
ENDBRANCH  16  17
ENDBRANCH  14  15
ENDBRANCH   2  14
TORSDOF 5
ENDMDL
