MODEL 1
REMARK VINA RESULT:      -7.9      0.000      0.000
REMARK  Name = 
REMARK  4 active torsions:
REMARK  status: ('A' for Active; 'I' for Inactive)
REMARK    1  A    between atoms: C_6  and  N_7
REMARK    2  A    between atoms: N_14  and  C_15
REMARK    3  A    between atoms: C_15  and  C_16
REMARK    4  A    between atoms: C_21  and  C_22
REMARK                            x       y       z     vdW  Elec       q    Type
REMARK                         _______ _______ _______ _____ _____    ______ ____
ROOT
ATOM      1  C   UNL     1       2.866   4.136  -8.113  0.00  0.00    +0.138 C 
ATOM      2  N   UNL     1       2.847   4.818  -6.954  0.00  0.00    -0.247 N 
ATOM      3  C   UNL     1       1.785   4.667  -6.132  0.00  0.00    +0.335 A 
ATOM      4  O   UNL     1       1.188   3.549  -6.198  0.00  0.00    -0.246 OA
ATOM      5  N   UNL     1       1.795   5.403  -4.992  0.00  0.00    -0.265 N 
ATOM      6  C   UNL     1       2.912   5.994  -4.578  0.00  0.00    +0.121 A 
ATOM      7  C   UNL     1       3.808   6.409  -5.555  0.00  0.00    +0.093 A 
ATOM      8  C   UNL     1       3.742   5.826  -6.815  0.00  0.00    +0.267 A 
ATOM      9  O   UNL     1       4.793   5.737  -7.520  0.00  0.00    -0.267 OA
ENDROOT
BRANCH   6  10
ATOM     10  N   UNL     1       3.295   6.133  -3.198  0.00  0.00    -0.293 N 
ATOM     11  C   UNL     1       3.933   4.966  -2.763  0.00  0.00    +0.111 C 
ATOM     12  C   UNL     1       4.447   5.104  -1.197  0.00  0.00    +0.112 C 
ATOM     13  N   UNL     1       3.215   4.228  -0.677  0.00  0.00    -0.131 NA
ATOM     14  C   UNL     1       3.625   6.516  -0.863  0.00  0.00    +0.023 C 
ATOM     15  C   UNL     1       4.522   7.450  -1.681  0.00  0.00    +0.023 C 
ATOM     16  C   UNL     1       3.740   7.513  -2.988  0.00  0.00    +0.092 C 
ENDBRANCH   6  10
BRANCH   5  17
ATOM     17  C   UNL     1       0.742   5.236  -4.040  0.00  0.00    +0.139 C 
BRANCH  17  18
ATOM     18  C   UNL     1      -0.181   6.382  -3.935  0.00  0.00    +0.010 A 
ATOM     19  C   UNL     1      -0.858   6.538  -2.731  0.00  0.00    +0.066 A 
ATOM     20  C   UNL     1      -2.213   6.855  -2.773  0.00  0.00    +0.010 A 
ATOM     21  C   UNL     1      -2.839   7.278  -3.927  0.00  0.00    +0.001 A 
ATOM     22  C   UNL     1      -2.009   7.479  -5.024  0.00  0.00    -0.000 A 
ATOM     23  C   UNL     1      -0.678   7.103  -4.986  0.00  0.00    -0.002 A 
BRANCH  19  24
ATOM     24  C   UNL     1      -0.221   6.211  -1.490  0.00  0.00    +0.100 C 
ATOM     25  N   UNL     1       0.143   6.065  -0.397  0.00  0.00    -0.191 NA
ENDBRANCH  19  24
ENDBRANCH  17  18
ENDBRANCH   5  17
TORSDOF 4
ENDMDL
MODEL 2
REMARK VINA RESULT:      -7.8      2.189      5.113
REMARK  Name = 
REMARK  4 active torsions:
REMARK  status: ('A' for Active; 'I' for Inactive)
REMARK    1  A    between atoms: C_6  and  N_7
REMARK    2  A    between atoms: N_14  and  C_15
REMARK    3  A    between atoms: C_15  and  C_16
REMARK    4  A    between atoms: C_21  and  C_22
REMARK                            x       y       z     vdW  Elec       q    Type
REMARK                         _______ _______ _______ _____ _____    ______ ____
ROOT
ATOM      1  C   UNL     1      -2.708   6.449  -3.748  0.00  0.00    +0.138 C 
ATOM      2  N   UNL     1      -1.430   6.196  -3.415  0.00  0.00    -0.247 N 
ATOM      3  C   UNL     1      -0.450   6.618  -4.245  0.00  0.00    +0.335 A 
ATOM      4  O   UNL     1      -0.713   7.654  -4.931  0.00  0.00    -0.246 OA
ATOM      5  N   UNL     1       0.821   6.307  -3.884  0.00  0.00    -0.265 N 
ATOM      6  C   UNL     1       1.091   5.882  -2.652  0.00  0.00    +0.121 A 
ATOM      7  C   UNL     1       0.100   5.160  -2.001  0.00  0.00    +0.093 A 
ATOM      8  C   UNL     1      -1.215   5.288  -2.433  0.00  0.00    +0.267 A 
ATOM      9  O   UNL     1      -2.165   5.130  -1.606  0.00  0.00    -0.267 OA
ENDROOT
BRANCH   6  10
ATOM     10  N   UNL     1       2.286   6.211  -1.923  0.00  0.00    -0.293 N 
ATOM     11  C   UNL     1       1.962   6.997  -0.811  0.00  0.00    +0.111 C 
ATOM     12  C   UNL     1       3.301   7.348   0.094  0.00  0.00    +0.112 C 
ATOM     13  N   UNL     1       3.369   8.825  -0.513  0.00  0.00    -0.131 NA
ATOM     14  C   UNL     1       4.418   6.804  -1.020  0.00  0.00    +0.023 C 
ATOM     15  C   UNL     1       4.160   5.308  -0.823  0.00  0.00    +0.023 C 
ATOM     16  C   UNL     1       3.170   5.044  -1.951  0.00  0.00    +0.092 C 
ENDBRANCH   6  10
BRANCH   5  17
ATOM     17  C   UNL     1       1.911   6.789  -4.672  0.00  0.00    +0.139 C 
BRANCH  17  18
ATOM     18  C   UNL     1       2.631   5.747  -5.430  0.00  0.00    +0.010 A 
ATOM     19  C   UNL     1       3.952   6.016  -5.772  0.00  0.00    +0.066 A 
ATOM     20  C   UNL     1       4.376   5.700  -7.060  0.00  0.00    +0.010 A 
ATOM     21  C   UNL     1       3.636   4.902  -7.909  0.00  0.00    +0.001 A 
ATOM     22  C   UNL     1       2.492   4.337  -7.359  0.00  0.00    -0.000 A 
ATOM     23  C   UNL     1       2.050   4.706  -6.100  0.00  0.00    -0.002 A 
BRANCH  19  24
ATOM     24  C   UNL     1       4.799   6.753  -4.883  0.00  0.00    +0.100 C 
ATOM     25  N   UNL     1       5.560   7.440  -4.338  0.00  0.00    -0.191 NA
ENDBRANCH  19  24
ENDBRANCH  17  18
ENDBRANCH   5  17
TORSDOF 4
ENDMDL
MODEL 3
REMARK VINA RESULT:      -7.5      2.141      5.391
REMARK  Name = 
REMARK  4 active torsions:
REMARK  status: ('A' for Active; 'I' for Inactive)
REMARK    1  A    between atoms: C_6  and  N_7
REMARK    2  A    between atoms: N_14  and  C_15
REMARK    3  A    between atoms: C_15  and  C_16
REMARK    4  A    between atoms: C_21  and  C_22
REMARK                            x       y       z     vdW  Elec       q    Type
REMARK                         _______ _______ _______ _____ _____    ______ ____
ROOT
ATOM      1  C   UNL     1      -2.035   5.919  -2.564  0.00  0.00    +0.138 C 
ATOM      2  N   UNL     1      -0.993   6.170  -3.378  0.00  0.00    -0.247 N 
ATOM      3  C   UNL     1       0.221   5.677  -3.044  0.00  0.00    +0.335 A 
ATOM      4  O   UNL     1       0.216   4.606  -2.363  0.00  0.00    -0.246 OA
ATOM      5  N   UNL     1       1.246   5.987  -3.878  0.00  0.00    -0.265 N 
ATOM      6  C   UNL     1       1.009   6.483  -5.089  0.00  0.00    +0.121 A 
ATOM      7  C   UNL     1      -0.130   7.263  -5.241  0.00  0.00    +0.093 A 
ATOM      8  C   UNL     1      -1.159   7.133  -4.316  0.00  0.00    +0.267 A 
ATOM      9  O   UNL     1      -2.355   7.361  -4.673  0.00  0.00    -0.267 OA
ENDROOT
BRANCH   6  10
ATOM     10  N   UNL     1       1.788   6.179  -6.259  0.00  0.00    -0.293 N 
ATOM     11  C   UNL     1       1.096   5.268  -7.066  0.00  0.00    +0.111 C 
ATOM     12  C   UNL     1       1.928   4.936  -8.456  0.00  0.00    +0.112 C 
ATOM     13  N   UNL     1       2.420   3.533  -7.869  0.00  0.00    -0.131 NA
ATOM     14  C   UNL     1       3.354   5.667  -7.990  0.00  0.00    +0.023 C 
ATOM     15  C   UNL     1       2.872   7.114  -8.127  0.00  0.00    +0.023 C 
ATOM     16  C   UNL     1       2.459   7.408  -6.689  0.00  0.00    +0.092 C 
ENDBRANCH   6  10
BRANCH   5  17
ATOM     17  C   UNL     1       2.541   5.436  -3.629  0.00  0.00    +0.139 C 
BRANCH  17  18
ATOM     18  C   UNL     1       3.425   6.286  -2.807  0.00  0.00    +0.010 A 
ATOM     19  C   UNL     1       3.562   5.942  -1.467  0.00  0.00    +0.066 A 
ATOM     20  C   UNL     1       3.523   6.960  -0.519  0.00  0.00    +0.010 A 
ATOM     21  C   UNL     1       3.621   8.293  -0.858  0.00  0.00    +0.001 A 
ATOM     22  C   UNL     1       3.878   8.556  -2.198  0.00  0.00    -0.000 A 
ATOM     23  C   UNL     1       3.855   7.541  -3.139  0.00  0.00    -0.002 A 
BRANCH  19  24
ATOM     24  C   UNL     1       3.569   4.566  -1.065  0.00  0.00    +0.100 C 
ATOM     25  N   UNL     1       3.405   3.504  -0.626  0.00  0.00    -0.191 NA
ENDBRANCH  19  24
ENDBRANCH  17  18
ENDBRANCH   5  17
TORSDOF 4
ENDMDL
MODEL 4
REMARK VINA RESULT:      -7.3      5.120      9.889
REMARK  Name = 
REMARK  4 active torsions:
REMARK  status: ('A' for Active; 'I' for Inactive)
REMARK    1  A    between atoms: C_6  and  N_7
REMARK    2  A    between atoms: N_14  and  C_15
REMARK    3  A    between atoms: C_15  and  C_16
REMARK    4  A    between atoms: C_21  and  C_22
REMARK                            x       y       z     vdW  Elec       q    Type
REMARK                         _______ _______ _______ _____ _____    ______ ____
ROOT
ATOM      1  C   UNL     1       2.156   4.512  -7.148  0.00  0.00    +0.138 C 
ATOM      2  N   UNL     1       2.160   5.050  -8.381  0.00  0.00    -0.247 N 
ATOM      3  C   UNL     1       3.207   4.791  -9.196  0.00  0.00    +0.335 A 
ATOM      4  O   UNL     1       3.796   3.683  -9.007  0.00  0.00    -0.246 OA
ATOM      5  N   UNL     1       3.181   5.386 -10.416  0.00  0.00    -0.265 N 
ATOM      6  C   UNL     1       2.062   5.934 -10.879  0.00  0.00    +0.121 A 
ATOM      7  C   UNL     1       1.187   6.471  -9.945  0.00  0.00    +0.093 A 
ATOM      8  C   UNL     1       1.271   6.042  -8.625  0.00  0.00    +0.267 A 
ATOM      9  O   UNL     1       0.232   6.049  -7.897  0.00  0.00    -0.267 OA
ENDROOT
BRANCH   6  10
ATOM     10  N   UNL     1       1.656   5.910 -12.259  0.00  0.00    -0.293 N 
ATOM     11  C   UNL     1       0.973   4.719 -12.532  0.00  0.00    +0.111 C 
ATOM     12  C   UNL     1       0.432   4.676 -14.094  0.00  0.00    +0.112 C 
ATOM     13  N   UNL     1       1.624   3.699 -14.519  0.00  0.00    -0.131 NA
ATOM     14  C   UNL     1       1.291   6.006 -14.619  0.00  0.00    +0.023 C 
ATOM     15  C   UNL     1       0.441   7.065 -13.912  0.00  0.00    +0.023 C 
ATOM     16  C   UNL     1       1.251   7.266 -12.636  0.00  0.00    +0.092 C 
ENDBRANCH   6  10
BRANCH   5  17
ATOM     17  C   UNL     1       4.217   5.095 -11.358  0.00  0.00    +0.139 C 
BRANCH  17  18
ATOM     18  C   UNL     1       5.360   6.028 -11.324  0.00  0.00    +0.010 A 
ATOM     19  C   UNL     1       6.040   6.234 -12.519  0.00  0.00    +0.066 A 
ATOM     20  C   UNL     1       7.432   6.254 -12.489  0.00  0.00    +0.010 A 
ATOM     21  C   UNL     1       8.147   6.344 -11.313  0.00  0.00    +0.001 A 
ATOM     22  C   UNL     1       7.391   6.530 -10.162  0.00  0.00    -0.000 A 
ATOM     23  C   UNL     1       6.010   6.449 -10.197  0.00  0.00    -0.002 A 
BRANCH  19  24
ATOM     24  C   UNL     1       5.334   6.253 -13.765  0.00  0.00    +0.100 C 
ATOM     25  N   UNL     1       4.916   6.398 -14.839  0.00  0.00    -0.191 NA
ENDBRANCH  19  24
ENDBRANCH  17  18
ENDBRANCH   5  17
TORSDOF 4
ENDMDL
MODEL 5
REMARK VINA RESULT:      -7.3      2.229      4.792
REMARK  Name = 
REMARK  4 active torsions:
REMARK  status: ('A' for Active; 'I' for Inactive)
REMARK    1  A    between atoms: C_6  and  N_7
REMARK    2  A    between atoms: N_14  and  C_15
REMARK    3  A    between atoms: C_15  and  C_16
REMARK    4  A    between atoms: C_21  and  C_22
REMARK                            x       y       z     vdW  Elec       q    Type
REMARK                         _______ _______ _______ _____ _____    ______ ____
ROOT
ATOM      1  C   UNL     1       4.337   5.995  -1.411  0.00  0.00    +0.138 C 
ATOM      2  N   UNL     1       3.678   5.752  -2.559  0.00  0.00    -0.247 N 
ATOM      3  C   UNL     1       2.444   6.279  -2.720  0.00  0.00    +0.335 A 
ATOM      4  O   UNL     1       2.219   7.364  -2.100  0.00  0.00    -0.246 OA
ATOM      5  N   UNL     1       1.805   5.976  -3.878  0.00  0.00    -0.265 N 
ATOM      6  C   UNL     1       2.472   5.450  -4.902  0.00  0.00    +0.121 A 
ATOM      7  C   UNL     1       3.559   4.640  -4.599  0.00  0.00    +0.093 A 
ATOM      8  C   UNL     1       4.160   4.765  -3.352  0.00  0.00    +0.267 A 
ATOM      9  O   UNL     1       5.395   4.502  -3.222  0.00  0.00    -0.267 OA
ENDROOT
BRANCH   6  10
ATOM     10  N   UNL     1       2.208   5.748  -6.284  0.00  0.00    -0.293 N 
ATOM     11  C   UNL     1       3.122   6.702  -6.746  0.00  0.00    +0.111 C 
ATOM     12  C   UNL     1       2.895   7.030  -8.351  0.00  0.00    +0.112 C 
ATOM     13  N   UNL     1       2.148   8.400  -8.003  0.00  0.00    -0.131 NA
ATOM     14  C   UNL     1       1.436   6.234  -8.493  0.00  0.00    +0.023 C 
ATOM     15  C   UNL     1       1.997   4.810  -8.432  0.00  0.00    +0.023 C 
ATOM     16  C   UNL     1       1.819   4.503  -6.950  0.00  0.00    +0.092 C 
ENDBRANCH   6  10
BRANCH   5  17
ATOM     17  C   UNL     1       0.530   6.562  -4.150  0.00  0.00    +0.139 C 
BRANCH  17  18
ATOM     18  C   UNL     1      -0.619   5.823  -3.593  0.00  0.00    +0.010 A 
ATOM     19  C   UNL     1      -1.756   5.732  -4.388  0.00  0.00    +0.066 A 
ATOM     20  C   UNL     1      -2.996   5.933  -3.790  0.00  0.00    +0.010 A 
ATOM     21  C   UNL     1      -3.165   5.953  -2.421  0.00  0.00    +0.001 A 
ATOM     22  C   UNL     1      -2.035   5.645  -1.671  0.00  0.00    -0.000 A 
ATOM     23  C   UNL     1      -0.797   5.506  -2.274  0.00  0.00    -0.002 A 
BRANCH  19  24
ATOM     24  C   UNL     1      -1.640   5.606  -5.811  0.00  0.00    +0.100 C 
ATOM     25  N   UNL     1      -1.630   5.312  -6.934  0.00  0.00    -0.191 NA
ENDBRANCH  19  24
ENDBRANCH  17  18
ENDBRANCH   5  17
TORSDOF 4
ENDMDL
MODEL 6
REMARK VINA RESULT:      -7.3      4.430      7.284
REMARK  Name = 
REMARK  4 active torsions:
REMARK  status: ('A' for Active; 'I' for Inactive)
REMARK    1  A    between atoms: C_6  and  N_7
REMARK    2  A    between atoms: N_14  and  C_15
REMARK    3  A    between atoms: C_15  and  C_16
REMARK    4  A    between atoms: C_21  and  C_22
REMARK                            x       y       z     vdW  Elec       q    Type
REMARK                         _______ _______ _______ _____ _____    ______ ____
ROOT
ATOM      1  C   UNL     1       0.500   3.882 -10.232  0.00  0.00    +0.138 C 
ATOM      2  N   UNL     1       1.577   4.686 -10.296  0.00  0.00    -0.247 N 
ATOM      3  C   UNL     1       2.469   4.654  -9.280  0.00  0.00    +0.335 A 
ATOM      4  O   UNL     1       2.560   3.552  -8.657  0.00  0.00    -0.246 OA
ATOM      5  N   UNL     1       3.519   5.509  -9.374  0.00  0.00    -0.265 N 
ATOM      6  C   UNL     1       3.802   6.110 -10.526  0.00  0.00    +0.121 A 
ATOM      7  C   UNL     1       2.737   6.391 -11.371  0.00  0.00    +0.093 A 
ATOM      8  C   UNL     1       1.555   5.678 -11.219  0.00  0.00    +0.267 A 
ATOM      9  O   UNL     1       0.805   5.484 -12.224  0.00  0.00    -0.267 OA
ENDROOT
BRANCH   6  10
ATOM     10  N   UNL     1       5.135   6.387 -10.992  0.00  0.00    -0.293 N 
ATOM     11  C   UNL     1       5.375   5.691 -12.182  0.00  0.00    +0.111 C 
ATOM     12  C   UNL     1       6.876   6.029 -12.789  0.00  0.00    +0.112 C 
ATOM     13  N   UNL     1       7.448   4.637 -12.249  0.00  0.00    -0.131 NA
ATOM     14  C   UNL     1       7.442   6.823 -11.435  0.00  0.00    +0.023 C 
ATOM     15  C   UNL     1       6.621   8.103 -11.616  0.00  0.00    +0.023 C 
ATOM     16  C   UNL     1       5.427   7.796 -10.719  0.00  0.00    +0.092 C 
ENDBRANCH   6  10
BRANCH   5  17
ATOM     17  C   UNL     1       4.541   5.475  -8.375  0.00  0.00    +0.139 C 
BRANCH  17  18
ATOM     18  C   UNL     1       4.046   5.524  -6.986  0.00  0.00    +0.010 A 
ATOM     19  C   UNL     1       3.477   6.719  -6.561  0.00  0.00    +0.066 A 
ATOM     20  C   UNL     1       3.815   7.198  -5.299  0.00  0.00    +0.010 A 
ATOM     21  C   UNL     1       4.467   6.423  -4.362  0.00  0.00    +0.001 A 
ATOM     22  C   UNL     1       4.664   5.093  -4.714  0.00  0.00    -0.000 A 
ATOM     23  C   UNL     1       4.378   4.645  -5.991  0.00  0.00    -0.002 A 
BRANCH  19  24
ATOM     24  C   UNL     1       2.702   7.518  -7.464  0.00  0.00    +0.100 C 
ATOM     25  N   UNL     1       2.095   8.316  -8.049  0.00  0.00    -0.191 NA
ENDBRANCH  19  24
ENDBRANCH  17  18
ENDBRANCH   5  17
TORSDOF 4
ENDMDL
MODEL 7
REMARK VINA RESULT:      -7.3      5.285      8.381
REMARK  Name = 
REMARK  4 active torsions:
REMARK  status: ('A' for Active; 'I' for Inactive)
REMARK    1  A    between atoms: C_6  and  N_7
REMARK    2  A    between atoms: N_14  and  C_15
REMARK    3  A    between atoms: C_15  and  C_16
REMARK    4  A    between atoms: C_21  and  C_22
REMARK                            x       y       z     vdW  Elec       q    Type
REMARK                         _______ _______ _______ _____ _____    ______ ____
ROOT
ATOM      1  C   UNL     1       6.479   5.696 -13.690  0.00  0.00    +0.138 C 
ATOM      2  N   UNL     1       5.561   6.000 -12.755  0.00  0.00    -0.247 N 
ATOM      3  C   UNL     1       4.318   5.482 -12.876  0.00  0.00    +0.335 A 
ATOM      4  O   UNL     1       4.239   4.365 -13.476  0.00  0.00    -0.246 OA
ATOM      5  N   UNL     1       3.418   5.846 -11.928  0.00  0.00    -0.265 N 
ATOM      6  C   UNL     1       3.820   6.426 -10.801  0.00  0.00    +0.121 A 
ATOM      7  C   UNL     1       4.958   7.218 -10.868  0.00  0.00    +0.093 A 
ATOM      8  C   UNL     1       5.846   7.027 -11.919  0.00  0.00    +0.267 A 
ATOM      9  O   UNL     1       7.078   7.283 -11.754  0.00  0.00    -0.267 OA
ENDROOT
BRANCH   6  10
ATOM     10  N   UNL     1       3.219   6.202  -9.513  0.00  0.00    -0.293 N 
ATOM     11  C   UNL     1       3.897   5.174  -8.846  0.00  0.00    +0.111 C 
ATOM     12  C   UNL     1       3.279   4.924  -7.333  0.00  0.00    +0.112 C 
ATOM     13  N   UNL     1       2.487   3.627  -7.831  0.00  0.00    -0.131 NA
ATOM     14  C   UNL     1       1.921   5.871  -7.534  0.00  0.00    +0.023 C 
ATOM     15  C   UNL     1       2.631   7.226  -7.477  0.00  0.00    +0.023 C 
ATOM     16  C   UNL     1       2.827   7.502  -8.963  0.00  0.00    +0.092 C 
ENDBRANCH   6  10
BRANCH   5  17
ATOM     17  C   UNL     1       2.108   5.275 -11.950  0.00  0.00    +0.139 C 
BRANCH  17  18
ATOM     18  C   UNL     1       1.125   6.019 -12.762  0.00  0.00    +0.010 A 
ATOM     19  C   UNL     1       0.849   5.520 -14.029  0.00  0.00    +0.066 A 
ATOM     20  C   UNL     1       0.766   6.420 -15.088  0.00  0.00    +0.010 A 
ATOM     21  C   UNL     1       0.682   7.784 -14.897  0.00  0.00    +0.001 A 
ATOM     22  C   UNL     1       0.569   8.200 -13.575  0.00  0.00    -0.000 A 
ATOM     23  C   UNL     1       0.712   7.303 -12.532  0.00  0.00    -0.002 A 
BRANCH  19  24
ATOM     24  C   UNL     1       0.821   4.107 -14.266  0.00  0.00    +0.100 C 
ATOM     25  N   UNL     1       0.999   2.967 -14.390  0.00  0.00    -0.191 NA
ENDBRANCH  19  24
ENDBRANCH  17  18
ENDBRANCH   5  17
TORSDOF 4
ENDMDL
MODEL 8
REMARK VINA RESULT:      -7.2      2.345      5.095
REMARK  Name = 
REMARK  4 active torsions:
REMARK  status: ('A' for Active; 'I' for Inactive)
REMARK    1  A    between atoms: C_6  and  N_7
REMARK    2  A    between atoms: N_14  and  C_15
REMARK    3  A    between atoms: C_15  and  C_16
REMARK    4  A    between atoms: C_21  and  C_22
REMARK                            x       y       z     vdW  Elec       q    Type
REMARK                         _______ _______ _______ _____ _____    ______ ____
ROOT
ATOM      1  C   UNL     1       1.783   6.740  -9.250  0.00  0.00    +0.138 C 
ATOM      2  N   UNL     1       1.176   6.459  -8.083  0.00  0.00    -0.247 N 
ATOM      3  C   UNL     1       1.772   6.846  -6.934  0.00  0.00    +0.335 A 
ATOM      4  O   UNL     1       2.507   7.879  -7.011  0.00  0.00    -0.246 OA
ATOM      5  N   UNL     1       1.138   6.508  -5.782  0.00  0.00    -0.265 N 
ATOM      6  C   UNL     1      -0.126   6.093  -5.801  0.00  0.00    +0.121 A 
ATOM      7  C   UNL     1      -0.548   5.404  -6.930  0.00  0.00    +0.093 A 
ATOM      8  C   UNL     1       0.164   5.558  -8.114  0.00  0.00    +0.267 A 
ATOM      9  O   UNL     1      -0.435   5.434  -9.226  0.00  0.00    -0.267 OA
ENDROOT
BRANCH   6  10
ATOM     10  N   UNL     1      -1.098   6.402  -4.787  0.00  0.00    -0.293 N 
ATOM     11  C   UNL     1      -0.852   5.631  -3.644  0.00  0.00    +0.111 C 
ATOM     12  C   UNL     1      -1.910   5.999  -2.427  0.00  0.00    +0.112 C 
ATOM     13  N   UNL     1      -2.766   4.682  -2.725  0.00  0.00    -0.131 NA
ATOM     14  C   UNL     1      -2.942   6.920  -3.359  0.00  0.00    +0.023 C 
ATOM     15  C   UNL     1      -2.026   8.139  -3.498  0.00  0.00    +0.023 C 
ATOM     16  C   UNL     1      -1.367   7.841  -4.840  0.00  0.00    +0.092 C 
ENDBRANCH   6  10
BRANCH   5  17
ATOM     17  C   UNL     1       1.671   6.953  -4.533  0.00  0.00    +0.139 C 
BRANCH  17  18
ATOM     18  C   UNL     1       2.734   6.094  -3.976  0.00  0.00    +0.010 A 
ATOM     19  C   UNL     1       3.840   6.735  -3.429  0.00  0.00    +0.066 A 
ATOM     20  C   UNL     1       5.104   6.234  -3.725  0.00  0.00    +0.010 A 
ATOM     21  C   UNL     1       5.295   4.997  -4.305  0.00  0.00    +0.001 A 
ATOM     22  C   UNL     1       4.148   4.229  -4.473  0.00  0.00    -0.000 A 
ATOM     23  C   UNL     1       2.894   4.760  -4.230  0.00  0.00    -0.002 A 
BRANCH  19  24
ATOM     24  C   UNL     1       3.689   7.974  -2.725  0.00  0.00    +0.100 C 
ATOM     25  N   UNL     1       3.652   8.873  -1.992  0.00  0.00    -0.191 NA
ENDBRANCH  19  24
ENDBRANCH  17  18
ENDBRANCH   5  17
TORSDOF 4
ENDMDL
MODEL 9
REMARK VINA RESULT:      -7.1      1.870      5.111
REMARK  Name = 
REMARK  4 active torsions:
REMARK  status: ('A' for Active; 'I' for Inactive)
REMARK    1  A    between atoms: C_6  and  N_7
REMARK    2  A    between atoms: N_14  and  C_15
REMARK    3  A    between atoms: C_15  and  C_16
REMARK    4  A    between atoms: C_21  and  C_22
REMARK                            x       y       z     vdW  Elec       q    Type
REMARK                         _______ _______ _______ _____ _____    ______ ____
ROOT
ATOM      1  C   UNL     1       4.094   5.725  -7.193  0.00  0.00    +0.138 C 
ATOM      2  N   UNL     1       3.107   5.691  -6.280  0.00  0.00    -0.247 N 
ATOM      3  C   UNL     1       3.213   6.478  -5.185  0.00  0.00    +0.335 A 
ATOM      4  O   UNL     1       3.877   7.549  -5.334  0.00  0.00    -0.246 OA
ATOM      5  N   UNL     1       2.210   6.382  -4.276  0.00  0.00    -0.265 N 
ATOM      6  C   UNL     1       1.065   5.783  -4.591  0.00  0.00    +0.121 A 
ATOM      7  C   UNL     1       1.126   4.745  -5.511  0.00  0.00    +0.093 A 
ATOM      8  C   UNL     1       2.221   4.670  -6.364  0.00  0.00    +0.267 A 
ATOM      9  O   UNL     1       2.088   4.144  -7.511  0.00  0.00    -0.267 OA
ENDROOT
BRANCH   6  10
ATOM     10  N   UNL     1      -0.229   6.207  -4.126  0.00  0.00    -0.293 N 
ATOM     11  C   UNL     1      -0.918   6.849  -5.161  0.00  0.00    +0.111 C 
ATOM     12  C   UNL     1      -2.438   7.300  -4.689  0.00  0.00    +0.112 C 
ATOM     13  N   UNL     1      -1.971   8.817  -4.505  0.00  0.00    -0.131 NA
ATOM     14  C   UNL     1      -2.217   7.001  -3.063  0.00  0.00    +0.023 C 
ATOM     15  C   UNL     1      -2.242   5.472  -3.152  0.00  0.00    +0.023 C 
ATOM     16  C   UNL     1      -0.749   5.172  -3.229  0.00  0.00    +0.092 C 
ENDBRANCH   6  10
BRANCH   5  17
ATOM     17  C   UNL     1       2.216   7.240  -3.133  0.00  0.00    +0.139 C 
BRANCH  17  18
ATOM     18  C   UNL     1       2.696   6.606  -1.890  0.00  0.00    +0.010 A 
ATOM     19  C   UNL     1       3.630   7.314  -1.141  0.00  0.00    +0.066 A 
ATOM     20  C   UNL     1       4.718   6.621  -0.620  0.00  0.00    +0.010 A 
ATOM     21  C   UNL     1       4.772   5.243  -0.586  0.00  0.00    +0.001 A 
ATOM     22  C   UNL     1       3.620   4.585  -1.001  0.00  0.00    -0.000 A 
ATOM     23  C   UNL     1       2.569   5.282  -1.571  0.00  0.00    -0.002 A 
BRANCH  19  24
ATOM     24  C   UNL     1       3.563   8.743  -1.056  0.00  0.00    +0.100 C 
ATOM     25  N   UNL     1       3.590   9.874  -0.794  0.00  0.00    -0.191 NA
ENDBRANCH  19  24
ENDBRANCH  17  18
ENDBRANCH   5  17
TORSDOF 4
ENDMDL
