MODEL 1
REMARK VINA RESULT:      -9.3      0.000      0.000
REMARK  Name = 
REMARK  7 active torsions:
REMARK  status: ('A' for Active; 'I' for Inactive)
REMARK    1  A    between atoms: C_4  and  O_5
REMARK    2  A    between atoms: O_5  and  C_6
REMARK    3  A    between atoms: C_10  and  O_11
REMARK    4  A    between atoms: O_11  and  C_12
REMARK    5  A    between atoms: C_16  and  O_17
REMARK    6  A    between atoms: O_17  and  C_18
REMARK    7  A    between atoms: C_33  and  C_34
REMARK                            x       y       z     vdW  Elec       q    Type
REMARK                         _______ _______ _______ _____ _____    ______ ____
ROOT
ATOM      1  O   UNL     1       3.773  11.760   1.272  0.00  0.00    -0.333 OA
ENDROOT
BRANCH   1   2
ATOM      2  C   UNL     1       4.942  12.495   0.655  0.00  0.00    +0.118 C 
ATOM      3  C   UNL     1       4.543  13.934   1.360  0.00  0.00    +0.030 C 
ATOM      4  C   UNL     1       5.974  14.729   1.196  0.00  0.00    +0.002 C 
ATOM      5  C   UNL     1       6.778  13.395   1.668  0.00  0.00    +0.000 C 
ATOM      6  C   UNL     1       7.989  13.094   0.965  0.00  0.00    +0.002 C 
ATOM      7  C   UNL     1       8.272  14.631   0.542  0.00  0.00    +0.028 C 
ATOM      8  C   UNL     1       9.759  14.309   0.061  0.00  0.00    +0.129 C 
ATOM      9  C   UNL     1      10.110  15.509  -0.626  0.00  0.00    +0.057 C 
ATOM     10  C   UNL     1      11.620  15.233  -1.139  0.00  0.00    +0.027 C 
ATOM     11  C   UNL     1      11.500  13.603  -1.041  0.00  0.00    +0.007 C 
ATOM     12  C   UNL     1       9.871  16.739  -0.011  0.00  0.00    +0.005 C 
ATOM     13  C   UNL     1       9.366  15.371  -2.082  0.00  0.00    +0.154 C 
ATOM     14  O   UNL     1       9.682  16.804  -2.469  0.00  0.00    -0.223 OA
ATOM     15  C   UNL     1       7.903  15.792  -1.454  0.00  0.00    +0.033 C 
ATOM     16  O   UNL     1      10.326  13.958   1.240  0.00  0.00    -0.226 OA
ATOM     17  C   UNL     1       9.987  13.362  -0.983  0.00  0.00    +0.031 C 
ATOM     18  C   UNL     1       7.493  14.310  -0.927  0.00  0.00    +0.005 C 
ATOM     19  C   UNL     1       6.010  14.627  -0.408  0.00  0.00    +0.000 C 
ATOM     20  C   UNL     1       5.700  16.106  -0.673  0.00  0.00    +0.000 C 
ATOM     21  C   UNL     1       4.988  13.997  -1.110  0.00  0.00    +0.002 C 
ATOM     22  C   UNL     1       4.109  12.914  -0.699  0.00  0.00    +0.030 C 
BRANCH  10  23
ATOM     23  C   UNL     1      12.217  15.357   0.342  0.00  0.00    +0.005 C 
ATOM     24  C   UNL     1      12.623  16.687   0.904  0.00  0.00    +0.231 C 
ATOM     25  O   UNL     1      12.765  16.284   2.249  0.00  0.00    -0.441 OA
ATOM     26  C   UNL     1      13.447  15.062   2.158  0.00  0.00    +0.341 C 
ATOM     27  O   UNL     1      13.553  14.384   3.232  0.00  0.00    -0.245 OA
ATOM     28  C   UNL     1      13.200  14.565   0.791  0.00  0.00    +0.077 C 
ENDBRANCH  10  23
ENDBRANCH   1   2
BRANCH   1  33
ATOM     29  C   UNL     1       3.166   7.906   0.813  0.00  0.00    +0.175 C 
ATOM     30  C   UNL     1       3.980   8.188   2.289  0.00  0.00    +0.186 C 
ATOM     31  O   UNL     1       5.386   8.384   1.764  0.00  0.00    -0.220 OA
ATOM     32  C   UNL     1       3.526   9.739   2.523  0.00  0.00    +0.097 C 
ATOM     33  C   UNL     1       4.690  10.622   1.763  0.00  0.00    +0.238 C 
ATOM     34  O   UNL     1       4.596   9.869   0.498  0.00  0.00    -0.330 OA
ATOM     35  C   UNL     1       3.329   9.390  -0.040  0.00  0.00    +0.147 C 
ATOM     36  C   UNL     1       2.157  10.170   0.820  0.00  0.00    +0.035 C 
BRANCH  29  37
ATOM     37  O   UNL     1       4.340   7.301   0.097  0.00  0.00    -0.328 OA
BRANCH  37  42
ATOM     38  C   UNL     1       2.887   6.185  -3.325  0.00  0.00    +0.175 C 
ATOM     39  C   UNL     1       1.612   6.147  -2.181  0.00  0.00    +0.186 C 
ATOM     40  O   UNL     1       1.951   4.881  -1.444  0.00  0.00    -0.220 OA
ATOM     41  C   UNL     1       2.475   7.135  -1.198  0.00  0.00    +0.097 C 
ATOM     42  C   UNL     1       3.597   6.121  -0.522  0.00  0.00    +0.238 C 
ATOM     43  O   UNL     1       4.509   6.171  -1.750  0.00  0.00    -0.330 OA
ATOM     44  C   UNL     1       3.888   5.046  -2.538  0.00  0.00    +0.147 C 
ATOM     45  C   UNL     1       5.003   5.178  -3.724  0.00  0.00    +0.035 C 
BRANCH  38  46
ATOM     46  O   UNL     1       2.370   5.217  -4.320  0.00  0.00    -0.328 OA
BRANCH  46  54
ATOM     47  C   UNL     1      -1.129   5.095  -6.999  0.00  0.00    +0.035 C 
ATOM     48  C   UNL     1       0.165   6.087  -6.804  0.00  0.00    +0.151 C 
ATOM     49  C   UNL     1       0.953   5.361  -8.138  0.00  0.00    +0.209 C 
ATOM     50  O   UNL     1       2.091   6.327  -8.083  0.00  0.00    -0.218 OA
ATOM     51  C   UNL     1       1.675   4.065  -7.283  0.00  0.00    +0.190 C 
ATOM     52  O   UNL     1       2.555   3.766  -8.474  0.00  0.00    -0.220 OA
ATOM     53  C   UNL     1       2.868   4.872  -6.521  0.00  0.00    +0.097 C 
ATOM     54  C   UNL     1       2.052   5.973  -5.590  0.00  0.00    +0.238 C 
ATOM     55  O   UNL     1       0.725   5.218  -5.712  0.00  0.00    -0.330 OA
ENDBRANCH  46  54
ENDBRANCH  38  46
ENDBRANCH  37  42
ENDBRANCH  29  37
ENDBRANCH   1  33
TORSDOF 7
ENDMDL
MODEL 2
REMARK VINA RESULT:      -9.2      1.506      2.113
REMARK  Name = 
REMARK  7 active torsions:
REMARK  status: ('A' for Active; 'I' for Inactive)
REMARK    1  A    between atoms: C_4  and  O_5
REMARK    2  A    between atoms: O_5  and  C_6
REMARK    3  A    between atoms: C_10  and  O_11
REMARK    4  A    between atoms: O_11  and  C_12
REMARK    5  A    between atoms: C_16  and  O_17
REMARK    6  A    between atoms: O_17  and  C_18
REMARK    7  A    between atoms: C_33  and  C_34
REMARK                            x       y       z     vdW  Elec       q    Type
REMARK                         _______ _______ _______ _____ _____    ______ ____
ROOT
ATOM      1  O   UNL     1       3.762  11.751   1.264  0.00  0.00    -0.333 OA
ENDROOT
BRANCH   1   2
ATOM      2  C   UNL     1       4.925  12.498   0.649  0.00  0.00    +0.118 C 
ATOM      3  C   UNL     1       4.547  13.917   1.404  0.00  0.00    +0.030 C 
ATOM      4  C   UNL     1       5.980  14.710   1.240  0.00  0.00    +0.002 C 
ATOM      5  C   UNL     1       6.783  13.358   1.657  0.00  0.00    +0.000 C 
ATOM      6  C   UNL     1       7.981  13.072   0.925  0.00  0.00    +0.002 C 
ATOM      7  C   UNL     1       8.265  14.619   0.544  0.00  0.00    +0.028 C 
ATOM      8  C   UNL     1       9.742  14.305   0.029  0.00  0.00    +0.129 C 
ATOM      9  C   UNL     1      10.088  15.523  -0.628  0.00  0.00    +0.057 C 
ATOM     10  C   UNL     1      11.588  15.255  -1.175  0.00  0.00    +0.027 C 
ATOM     11  C   UNL     1      11.459  13.623  -1.124  0.00  0.00    +0.007 C 
ATOM     12  C   UNL     1       9.867  16.735   0.028  0.00  0.00    +0.005 C 
ATOM     13  C   UNL     1       9.319  15.433  -2.075  0.00  0.00    +0.154 C 
ATOM     14  O   UNL     1       9.637  16.876  -2.422  0.00  0.00    -0.223 OA
ATOM     15  C   UNL     1       7.870  15.843  -1.408  0.00  0.00    +0.033 C 
ATOM     16  O   UNL     1      10.327  13.914   1.186  0.00  0.00    -0.226 OA
ATOM     17  C   UNL     1       9.947  13.388  -1.048  0.00  0.00    +0.031 C 
ATOM     18  C   UNL     1       7.459  14.347  -0.920  0.00  0.00    +0.005 C 
ATOM     19  C   UNL     1       5.988  14.657  -0.367  0.00  0.00    +0.000 C 
ATOM     20  C   UNL     1       5.682  16.145  -0.581  0.00  0.00    +0.000 C 
ATOM     21  C   UNL     1       4.950  14.053  -1.070  0.00  0.00    +0.002 C 
ATOM     22  C   UNL     1       4.071  12.963  -0.677  0.00  0.00    +0.030 C 
BRANCH  10  23
ATOM     23  C   UNL     1      12.210  15.330   0.299  0.00  0.00    +0.005 C 
ATOM     24  C   UNL     1      12.703  16.629   0.866  0.00  0.00    +0.231 C 
ATOM     25  O   UNL     1      12.839  16.207   2.206  0.00  0.00    -0.441 OA
ATOM     26  C   UNL     1      13.444  14.946   2.096  0.00  0.00    +0.341 C 
ATOM     27  O   UNL     1      13.522  14.254   3.164  0.00  0.00    -0.245 OA
ATOM     28  C   UNL     1      13.149  14.477   0.729  0.00  0.00    +0.077 C 
ENDBRANCH  10  23
ENDBRANCH   1   2
BRANCH   1  33
ATOM     29  C   UNL     1       3.018   7.969   0.507  0.00  0.00    +0.175 C 
ATOM     30  C   UNL     1       3.899   8.101   1.965  0.00  0.00    +0.186 C 
ATOM     31  O   UNL     1       5.288   8.303   1.399  0.00  0.00    -0.220 OA
ATOM     32  C   UNL     1       3.504   9.638   2.348  0.00  0.00    +0.097 C 
ATOM     33  C   UNL     1       4.663  10.551   1.617  0.00  0.00    +0.238 C 
ATOM     34  O   UNL     1       4.494   9.912   0.297  0.00  0.00    -0.330 OA
ATOM     35  C   UNL     1       3.193   9.516  -0.224  0.00  0.00    +0.147 C 
ATOM     36  C   UNL     1       2.080  10.251   0.748  0.00  0.00    +0.035 C 
BRANCH  29  37
ATOM     37  O   UNL     1       4.143   7.396  -0.308  0.00  0.00    -0.328 OA
BRANCH  37  42
ATOM     38  C   UNL     1       1.178   6.064  -2.428  0.00  0.00    +0.175 C 
ATOM     39  C   UNL     1       0.940   5.540  -0.816  0.00  0.00    +0.186 C 
ATOM     40  O   UNL     1       1.938   4.416  -0.750  0.00  0.00    -0.220 OA
ATOM     41  C   UNL     1       1.977   6.697  -0.294  0.00  0.00    +0.097 C 
ATOM     42  C   UNL     1       3.467   6.074  -0.660  0.00  0.00    +0.238 C 
ATOM     43  O   UNL     1       3.377   6.495  -2.130  0.00  0.00    -0.330 OA
ATOM     44  C   UNL     1       2.675   5.276  -2.670  0.00  0.00    +0.147 C 
ATOM     45  C   UNL     1       2.745   5.840  -4.203  0.00  0.00    +0.035 C 
BRANCH  38  46
ATOM     46  O   UNL     1       0.389   5.040  -3.152  0.00  0.00    -0.328 OA
BRANCH  46  54
ATOM     47  C   UNL     1      -2.600   5.340  -6.378  0.00  0.00    +0.035 C 
ATOM     48  C   UNL     1      -2.637   5.376  -4.737  0.00  0.00    +0.151 C 
ATOM     49  C   UNL     1      -2.750   7.083  -4.753  0.00  0.00    +0.209 C 
ATOM     50  O   UNL     1      -2.922   7.158  -3.272  0.00  0.00    -0.218 OA
ATOM     51  C   UNL     1      -1.072   7.411  -4.835  0.00  0.00    +0.190 C 
ATOM     52  O   UNL     1      -1.336   8.861  -4.501  0.00  0.00    -0.220 OA
ATOM     53  C   UNL     1      -0.652   7.066  -3.299  0.00  0.00    +0.097 C 
ATOM     54  C   UNL     1      -1.060   5.467  -3.139  0.00  0.00    +0.238 C 
ATOM     55  O   UNL     1      -1.141   5.252  -4.654  0.00  0.00    -0.330 OA
ENDBRANCH  46  54
ENDBRANCH  38  46
ENDBRANCH  37  42
ENDBRANCH  29  37
ENDBRANCH   1  33
TORSDOF 7
ENDMDL
MODEL 3
REMARK VINA RESULT:      -9.1      5.049     10.204
REMARK  Name = 
REMARK  7 active torsions:
REMARK  status: ('A' for Active; 'I' for Inactive)
REMARK    1  A    between atoms: C_4  and  O_5
REMARK    2  A    between atoms: O_5  and  C_6
REMARK    3  A    between atoms: C_10  and  O_11
REMARK    4  A    between atoms: O_11  and  C_12
REMARK    5  A    between atoms: C_16  and  O_17
REMARK    6  A    between atoms: O_17  and  C_18
REMARK    7  A    between atoms: C_33  and  C_34
REMARK                            x       y       z     vdW  Elec       q    Type
REMARK                         _______ _______ _______ _____ _____    ______ ____
ROOT
ATOM      1  O   UNL     1       3.404   5.067  -5.579  0.00  0.00    -0.333 OA
ENDROOT
BRANCH   1   2
ATOM      2  C   UNL     1       3.034   5.782  -4.299  0.00  0.00    +0.118 C 
ATOM      3  C   UNL     1       3.278   4.446  -3.360  0.00  0.00    +0.030 C 
ATOM      4  C   UNL     1       3.398   5.162  -1.883  0.00  0.00    +0.002 C 
ATOM      5  C   UNL     1       4.351   6.320  -2.514  0.00  0.00    +0.000 C 
ATOM      6  C   UNL     1       4.124   7.658  -2.054  0.00  0.00    +0.002 C 
ATOM      7  C   UNL     1       3.505   7.197  -0.632  0.00  0.00    +0.028 C 
ATOM      8  C   UNL     1       3.572   8.674  -0.033  0.00  0.00    +0.129 C 
ATOM      9  C   UNL     1       2.795   8.543   1.156  0.00  0.00    +0.057 C 
ATOM     10  C   UNL     1       2.831  10.025   1.807  0.00  0.00    +0.027 C 
ATOM     11  C   UNL     1       3.216  10.778   0.405  0.00  0.00    +0.007 C 
ATOM     12  C   UNL     1       3.046   7.473   2.018  0.00  0.00    +0.005 C 
ATOM     13  C   UNL     1       1.242   8.584   0.628  0.00  0.00    +0.154 C 
ATOM     14  O   UNL     1       0.688   8.191   1.985  0.00  0.00    -0.223 OA
ATOM     15  C   UNL     1       1.299   7.017   0.123  0.00  0.00    +0.033 C 
ATOM     16  O   UNL     1       4.913   8.865  -0.004  0.00  0.00    -0.226 OA
ATOM     17  C   UNL     1       2.861   9.739  -0.665  0.00  0.00    +0.031 C 
ATOM     18  C   UNL     1       1.966   7.314  -1.329  0.00  0.00    +0.005 C 
ATOM     19  C   UNL     1       1.935   5.829  -1.930  0.00  0.00    +0.000 C 
ATOM     20  C   UNL     1       1.295   4.892  -0.898  0.00  0.00    +0.000 C 
ATOM     21  C   UNL     1       1.101   5.650  -3.028  0.00  0.00    +0.002 C 
ATOM     22  C   UNL     1       1.436   5.417  -4.423  0.00  0.00    +0.030 C 
BRANCH  10  23
ATOM     23  C   UNL     1       4.366   9.871   2.238  0.00  0.00    +0.005 C 
ATOM     24  C   UNL     1       4.749   9.136   3.488  0.00  0.00    +0.231 C 
ATOM     25  O   UNL     1       6.133   9.038   3.229  0.00  0.00    -0.441 OA
ATOM     26  C   UNL     1       6.472  10.314   2.755  0.00  0.00    +0.341 C 
ATOM     27  O   UNL     1       7.644  10.453   2.274  0.00  0.00    -0.245 OA
ATOM     28  C   UNL     1       5.213  10.909   2.267  0.00  0.00    +0.077 C 
ENDBRANCH  10  23
ENDBRANCH   1   2
BRANCH   1  33
ATOM     29  C   UNL     1       3.875   6.355  -9.260  0.00  0.00    +0.175 C 
ATOM     30  C   UNL     1       2.958   7.487  -8.368  0.00  0.00    +0.186 C 
ATOM     31  O   UNL     1       1.608   6.801  -8.408  0.00  0.00    -0.220 OA
ATOM     32  C   UNL     1       3.459   7.077  -6.869  0.00  0.00    +0.097 C 
ATOM     33  C   UNL     1       2.401   5.909  -6.391  0.00  0.00    +0.238 C 
ATOM     34  O   UNL     1       2.564   5.101  -7.615  0.00  0.00    -0.330 OA
ATOM     35  C   UNL     1       3.848   4.939  -8.285  0.00  0.00    +0.147 C 
ATOM     36  C   UNL     1       4.980   5.488  -7.218  0.00  0.00    +0.035 C 
BRANCH  29  37
ATOM     37  O   UNL     1       2.737   5.859 -10.107  0.00  0.00    -0.328 OA
BRANCH  37  42
ATOM     38  C   UNL     1       4.734   6.606 -13.351  0.00  0.00    +0.175 C 
ATOM     39  C   UNL     1       3.574   5.403 -13.721  0.00  0.00    +0.186 C 
ATOM     40  O   UNL     1       4.229   4.199 -13.101  0.00  0.00    -0.220 OA
ATOM     41  C   UNL     1       2.723   5.822 -12.384  0.00  0.00    +0.097 C 
ATOM     42  C   UNL     1       3.581   5.128 -11.148  0.00  0.00    +0.238 C 
ATOM     43  O   UNL     1       4.618   6.255 -11.120  0.00  0.00    -0.330 OA
ATOM     44  C   UNL     1       5.568   5.712 -12.156  0.00  0.00    +0.147 C 
ATOM     45  C   UNL     1       6.613   6.948 -11.934  0.00  0.00    +0.035 C 
BRANCH  38  46
ATOM     46  O   UNL     1       5.732   6.339 -14.413  0.00  0.00    -0.328 OA
BRANCH  46  54
ATOM     47  C   UNL     1       4.380   7.465 -18.455  0.00  0.00    +0.035 C 
ATOM     48  C   UNL     1       5.012   8.261 -17.165  0.00  0.00    +0.151 C 
ATOM     49  C   UNL     1       6.557   8.277 -17.901  0.00  0.00    +0.209 C 
ATOM     50  O   UNL     1       7.145   9.116 -16.814  0.00  0.00    -0.218 OA
ATOM     51  C   UNL     1       7.075   6.741 -17.350  0.00  0.00    +0.190 C 
ATOM     52  O   UNL     1       8.490   7.065 -17.769  0.00  0.00    -0.220 OA
ATOM     53  C   UNL     1       7.385   7.101 -15.791  0.00  0.00    +0.097 C 
ATOM     54  C   UNL     1       5.916   7.607 -15.215  0.00  0.00    +0.238 C 
ATOM     55  O   UNL     1       5.149   6.983 -16.385  0.00  0.00    -0.330 OA
ENDBRANCH  46  54
ENDBRANCH  38  46
ENDBRANCH  37  42
ENDBRANCH  29  37
ENDBRANCH   1  33
TORSDOF 7
ENDMDL
MODEL 4
REMARK VINA RESULT:      -9.0      4.343      9.545
REMARK  Name = 
REMARK  7 active torsions:
REMARK  status: ('A' for Active; 'I' for Inactive)
REMARK    1  A    between atoms: C_4  and  O_5
REMARK    2  A    between atoms: O_5  and  C_6
REMARK    3  A    between atoms: C_10  and  O_11
REMARK    4  A    between atoms: O_11  and  C_12
REMARK    5  A    between atoms: C_16  and  O_17
REMARK    6  A    between atoms: O_17  and  C_18
REMARK    7  A    between atoms: C_33  and  C_34
REMARK                            x       y       z     vdW  Elec       q    Type
REMARK                         _______ _______ _______ _____ _____    ______ ____
ROOT
ATOM      1  O   UNL     1       2.285   5.206  -4.621  0.00  0.00    -0.333 OA
ENDROOT
BRANCH   1   2
ATOM      2  C   UNL     1       2.151   6.139  -3.438  0.00  0.00    +0.118 C 
ATOM      3  C   UNL     1       2.117   4.908  -2.338  0.00  0.00    +0.030 C 
ATOM      4  C   UNL     1       2.468   5.749  -0.968  0.00  0.00    +0.002 C 
ATOM      5  C   UNL     1       3.637   6.561  -1.757  0.00  0.00    +0.000 C 
ATOM      6  C   UNL     1       3.752   7.959  -1.471  0.00  0.00    +0.002 C 
ATOM      7  C   UNL     1       3.106   7.836   0.009  0.00  0.00    +0.028 C 
ATOM      8  C   UNL     1       3.545   9.316   0.411  0.00  0.00    +0.129 C 
ATOM      9  C   UNL     1       2.814   9.520   1.619  0.00  0.00    +0.057 C 
ATOM     10  C   UNL     1       3.226  11.018   2.072  0.00  0.00    +0.027 C 
ATOM     11  C   UNL     1       3.713  11.481   0.580  0.00  0.00    +0.007 C 
ATOM     12  C   UNL     1       2.846   8.534   2.607  0.00  0.00    +0.005 C 
ATOM     13  C   UNL     1       1.292   9.865   1.113  0.00  0.00    +0.154 C 
ATOM     14  O   UNL     1       0.723   9.784   2.518  0.00  0.00    -0.223 OA
ATOM     15  C   UNL     1       0.956   8.281   0.814  0.00  0.00    +0.033 C 
ATOM     16  O   UNL     1       4.894   9.183   0.395  0.00  0.00    -0.226 OA
ATOM     17  C   UNL     1       3.077  10.435  -0.343  0.00  0.00    +0.031 C 
ATOM     18  C   UNL     1       1.608   8.231  -0.675  0.00  0.00    +0.005 C 
ATOM     19  C   UNL     1       1.202   6.735  -1.078  0.00  0.00    +0.000 C 
ATOM     20  C   UNL     1       0.407   6.110   0.075  0.00  0.00    +0.000 C 
ATOM     21  C   UNL     1       0.300   6.628  -2.131  0.00  0.00    +0.002 C 
ATOM     22  C   UNL     1       0.508   6.154  -3.490  0.00  0.00    +0.030 C 
BRANCH  10  23
ATOM     23  C   UNL     1       4.700  10.556   2.497  0.00  0.00    +0.005 C 
ATOM     24  C   UNL     1       4.933   9.765   3.750  0.00  0.00    +0.231 C 
ATOM     25  O   UNL     1       6.265   9.385   3.484  0.00  0.00    -0.441 OA
ATOM     26  C   UNL     1       6.856  10.562   3.000  0.00  0.00    +0.341 C 
ATOM     27  O   UNL     1       8.028  10.455   2.511  0.00  0.00    -0.245 OA
ATOM     28  C   UNL     1       5.741  11.399   2.514  0.00  0.00    +0.077 C 
ENDBRANCH  10  23
ENDBRANCH   1   2
BRANCH   1  33
ATOM     29  C   UNL     1       2.493   5.157  -8.543  0.00  0.00    +0.175 C 
ATOM     30  C   UNL     1       3.754   6.123  -7.913  0.00  0.00    +0.186 C 
ATOM     31  O   UNL     1       2.976   7.388  -7.621  0.00  0.00    -0.220 OA
ATOM     32  C   UNL     1       3.836   5.469  -6.419  0.00  0.00    +0.097 C 
ATOM     33  C   UNL     1       2.771   6.354  -5.527  0.00  0.00    +0.238 C 
ATOM     34  O   UNL     1       1.661   6.196  -6.488  0.00  0.00    -0.330 OA
ATOM     35  C   UNL     1       1.421   4.957  -7.214  0.00  0.00    +0.147 C 
ATOM     36  C   UNL     1       2.345   3.814  -6.465  0.00  0.00    +0.035 C 
BRANCH  29  37
ATOM     37  O   UNL     1       1.682   6.295  -9.097  0.00  0.00    -0.328 OA
BRANCH  37  42
ATOM     38  C   UNL     1       1.191   6.849 -12.906  0.00  0.00    +0.175 C 
ATOM     39  C   UNL     1      -0.340   6.480 -12.233  0.00  0.00    +0.186 C 
ATOM     40  O   UNL     1      -0.200   4.994 -12.047  0.00  0.00    -0.220 OA
ATOM     41  C   UNL     1       0.226   6.877 -10.747  0.00  0.00    +0.097 C 
ATOM     42  C   UNL     1       1.136   5.560 -10.318  0.00  0.00    +0.238 C 
ATOM     43  O   UNL     1       2.340   6.014 -11.148  0.00  0.00    -0.330 OA
ATOM     44  C   UNL     1       1.956   5.387 -12.463  0.00  0.00    +0.147 C 
ATOM     45  C   UNL     1       3.344   5.876 -13.172  0.00  0.00    +0.035 C 
BRANCH  38  46
ATOM     46  O   UNL     1       0.961   6.439 -14.312  0.00  0.00    -0.328 OA
BRANCH  46  54
ATOM     47  C   UNL     1       0.239   7.191 -18.595  0.00  0.00    +0.035 C 
ATOM     48  C   UNL     1      -0.309   7.826 -17.183  0.00  0.00    +0.151 C 
ATOM     49  C   UNL     1       0.756   9.157 -17.340  0.00  0.00    +0.209 C 
ATOM     50  O   UNL     1       0.196   9.839 -16.135  0.00  0.00    -0.218 OA
ATOM     51  C   UNL     1       2.123   8.427 -16.611  0.00  0.00    +0.190 C 
ATOM     52  O   UNL     1       2.799   9.775 -16.522  0.00  0.00    -0.220 OA
ATOM     53  C   UNL     1       1.661   8.482 -15.050  0.00  0.00    +0.097 C 
ATOM     54  C   UNL     1       0.272   7.578 -15.027  0.00  0.00    +0.238 C 
ATOM     55  O   UNL     1       0.580   6.921 -16.376  0.00  0.00    -0.330 OA
ENDBRANCH  46  54
ENDBRANCH  38  46
ENDBRANCH  37  42
ENDBRANCH  29  37
ENDBRANCH   1  33
TORSDOF 7
ENDMDL
MODEL 5
REMARK VINA RESULT:      -8.8      2.752      4.031
REMARK  Name = 
REMARK  7 active torsions:
REMARK  status: ('A' for Active; 'I' for Inactive)
REMARK    1  A    between atoms: C_4  and  O_5
REMARK    2  A    between atoms: O_5  and  C_6
REMARK    3  A    between atoms: C_10  and  O_11
REMARK    4  A    between atoms: O_11  and  C_12
REMARK    5  A    between atoms: C_16  and  O_17
REMARK    6  A    between atoms: O_17  and  C_18
REMARK    7  A    between atoms: C_33  and  C_34
REMARK                            x       y       z     vdW  Elec       q    Type
REMARK                         _______ _______ _______ _____ _____    ______ ____
ROOT
ATOM      1  O   UNL     1       3.015   9.828   2.083  0.00  0.00    -0.333 OA
ENDROOT
BRANCH   1   2
ATOM      2  C   UNL     1       3.535  11.231   1.858  0.00  0.00    +0.118 C 
ATOM      3  C   UNL     1       5.013  10.899   2.515  0.00  0.00    +0.030 C 
ATOM      4  C   UNL     1       5.875  12.165   1.912  0.00  0.00    +0.002 C 
ATOM      5  C   UNL     1       5.184  11.951   0.455  0.00  0.00    +0.000 C 
ATOM      6  C   UNL     1       4.811  13.136  -0.259  0.00  0.00    +0.002 C 
ATOM      7  C   UNL     1       5.916  14.070   0.468  0.00  0.00    +0.028 C 
ATOM      8  C   UNL     1       5.699  15.268  -0.563  0.00  0.00    +0.129 C 
ATOM      9  C   UNL     1       6.401  16.334   0.075  0.00  0.00    +0.057 C 
ATOM     10  C   UNL     1       6.209  17.583  -0.937  0.00  0.00    +0.027 C 
ATOM     11  C   UNL     1       4.890  16.956  -1.676  0.00  0.00    +0.007 C 
ATOM     12  C   UNL     1       7.692  16.106   0.554  0.00  0.00    +0.005 C 
ATOM     13  C   UNL     1       5.370  16.851   1.243  0.00  0.00    +0.154 C 
ATOM     14  O   UNL     1       6.416  17.749   1.877  0.00  0.00    -0.223 OA
ATOM     15  C   UNL     1       5.752  15.593   2.234  0.00  0.00    +0.033 C 
ATOM     16  O   UNL     1       6.144  14.690  -1.705  0.00  0.00    -0.226 OA
ATOM     17  C   UNL     1       4.414  15.876  -0.698  0.00  0.00    +0.031 C 
ATOM     18  C   UNL     1       4.721  14.520   1.580  0.00  0.00    +0.005 C 
ATOM     19  C   UNL     1       4.955  13.297   2.589  0.00  0.00    +0.000 C 
ATOM     20  C   UNL     1       5.975  13.722   3.653  0.00  0.00    +0.000 C 
ATOM     21  C   UNL     1       3.858  12.956   3.372  0.00  0.00    +0.002 C 
ATOM     22  C   UNL     1       3.001  11.782   3.312  0.00  0.00    +0.030 C 
BRANCH  10  23
ATOM     23  C   UNL     1       7.212  16.949  -2.014  0.00  0.00    +0.005 C 
ATOM     24  C   UNL     1       8.687  17.207  -1.944  0.00  0.00    +0.231 C 
ATOM     25  O   UNL     1       9.092  16.223  -2.871  0.00  0.00    -0.441 OA
ATOM     26  C   UNL     1       8.169  16.357  -3.920  0.00  0.00    +0.341 C 
ATOM     27  O   UNL     1       8.196  15.459  -4.824  0.00  0.00    -0.245 OA
ATOM     28  C   UNL     1       6.989  17.021  -3.334  0.00  0.00    +0.077 C 
ENDBRANCH  10  23
ENDBRANCH   1   2
BRANCH   1  33
ATOM     29  C   UNL     1       2.621   6.872  -0.474  0.00  0.00    +0.175 C 
ATOM     30  C   UNL     1       4.185   6.832   0.214  0.00  0.00    +0.186 C 
ATOM     31  O   UNL     1       4.846   7.919  -0.608  0.00  0.00    -0.220 OA
ATOM     32  C   UNL     1       3.864   7.650   1.590  0.00  0.00    +0.097 C 
ATOM     33  C   UNL     1       4.125   9.228   1.197  0.00  0.00    +0.238 C 
ATOM     34  O   UNL     1       3.275   9.185  -0.009  0.00  0.00    -0.330 OA
ATOM     35  C   UNL     1       2.028   8.433  -0.066  0.00  0.00    +0.147 C 
ATOM     36  C   UNL     1       1.673   8.039   1.496  0.00  0.00    +0.035 C 
BRANCH  29  37
ATOM     37  O   UNL     1       3.058   7.334  -1.836  0.00  0.00    -0.328 OA
BRANCH  37  42
ATOM     38  C   UNL     1       2.478   6.259  -5.520  0.00  0.00    +0.175 C 
ATOM     39  C   UNL     1       0.956   6.265  -4.735  0.00  0.00    +0.186 C 
ATOM     40  O   UNL     1       1.058   4.989  -3.945  0.00  0.00    -0.220 OA
ATOM     41  C   UNL     1       1.574   7.225  -3.560  0.00  0.00    +0.097 C 
ATOM     42  C   UNL     1       2.457   6.176  -2.629  0.00  0.00    +0.238 C 
ATOM     43  O   UNL     1       3.650   6.195  -3.588  0.00  0.00    -0.330 OA
ATOM     44  C   UNL     1       3.212   5.089  -4.514  0.00  0.00    +0.147 C 
ATOM     45  C   UNL     1       4.594   5.184  -5.381  0.00  0.00    +0.035 C 
BRANCH  38  46
ATOM     46  O   UNL     1       2.198   5.307  -6.621  0.00  0.00    -0.328 OA
BRANCH  46  54
ATOM     47  C   UNL     1       0.384   4.245 -10.496  0.00  0.00    +0.035 C 
ATOM     48  C   UNL     1       0.872   5.635  -9.770  0.00  0.00    +0.151 C 
ATOM     49  C   UNL     1       2.322   5.629 -10.680  0.00  0.00    +0.209 C 
ATOM     50  O   UNL     1       2.746   6.959 -10.148  0.00  0.00    -0.218 OA
ATOM     51  C   UNL     1       3.232   4.629  -9.631  0.00  0.00    +0.190 C 
ATOM     52  O   UNL     1       4.498   5.007 -10.364  0.00  0.00    -0.220 OA
ATOM     53  C   UNL     1       3.531   5.692  -8.433  0.00  0.00    +0.097 C 
ATOM     54  C   UNL     1       2.018   6.100  -7.894  0.00  0.00    +0.238 C 
ATOM     55  O   UNL     1       1.364   4.887  -8.562  0.00  0.00    -0.330 OA
ENDBRANCH  46  54
ENDBRANCH  38  46
ENDBRANCH  37  42
ENDBRANCH  29  37
ENDBRANCH   1  33
TORSDOF 7
ENDMDL
MODEL 6
REMARK VINA RESULT:      -8.5      3.829     13.393
REMARK  Name = 
REMARK  7 active torsions:
REMARK  status: ('A' for Active; 'I' for Inactive)
REMARK    1  A    between atoms: C_4  and  O_5
REMARK    2  A    between atoms: O_5  and  C_6
REMARK    3  A    between atoms: C_10  and  O_11
REMARK    4  A    between atoms: O_11  and  C_12
REMARK    5  A    between atoms: C_16  and  O_17
REMARK    6  A    between atoms: O_17  and  C_18
REMARK    7  A    between atoms: C_33  and  C_34
REMARK                            x       y       z     vdW  Elec       q    Type
REMARK                         _______ _______ _______ _____ _____    ______ ____
ROOT
ATOM      1  O   UNL     1       4.514   6.493  -5.951  0.00  0.00    -0.333 OA
ENDROOT
BRANCH   1   2
ATOM      2  C   UNL     1       3.705   6.096  -7.166  0.00  0.00    +0.118 C 
ATOM      3  C   UNL     1       2.449   7.098  -6.785  0.00  0.00    +0.030 C 
ATOM      4  C   UNL     1       1.694   7.164  -8.246  0.00  0.00    +0.002 C 
ATOM      5  C   UNL     1       3.131   7.344  -8.988  0.00  0.00    +0.000 C 
ATOM      6  C   UNL     1       3.312   6.629 -10.216  0.00  0.00    +0.002 C 
ATOM      7  C   UNL     1       1.732   6.576 -10.563  0.00  0.00    +0.028 C 
ATOM      8  C   UNL     1       1.995   6.081 -12.056  0.00  0.00    +0.129 C 
ATOM      9  C   UNL     1       0.685   5.696 -12.472  0.00  0.00    +0.057 C 
ATOM     10  C   UNL     1       0.897   5.181 -13.992  0.00  0.00    +0.027 C 
ATOM     11  C   UNL     1       2.500   4.902 -13.816  0.00  0.00    +0.007 C 
ATOM     12  C   UNL     1      -0.382   6.568 -12.247  0.00  0.00    +0.005 C 
ATOM     13  C   UNL     1       0.461   4.225 -11.781  0.00  0.00    +0.154 C 
ATOM     14  O   UNL     1      -1.009   4.185 -12.157  0.00  0.00    -0.223 OA
ATOM     15  C   UNL     1       0.135   4.887 -10.309  0.00  0.00    +0.033 C 
ATOM     16  O   UNL     1       2.626   7.166 -12.566  0.00  0.00    -0.226 OA
ATOM     17  C   UNL     1       2.689   4.856 -12.296  0.00  0.00    +0.031 C 
ATOM     18  C   UNL     1       1.681   5.050  -9.832  0.00  0.00    +0.005 C 
ATOM     19  C   UNL     1       1.431   5.580  -8.341  0.00  0.00    +0.000 C 
ATOM     20  C   UNL     1      -0.080   5.650  -8.088  0.00  0.00    +0.000 C 
ATOM     21  C   UNL     1       1.846   4.722  -7.328  0.00  0.00    +0.002 C 
ATOM     22  C   UNL     1       2.958   4.848  -6.400  0.00  0.00    +0.030 C 
BRANCH  10  23
ATOM     23  C   UNL     1       1.135   6.670 -14.533  0.00  0.00    +0.005 C 
ATOM     24  C   UNL     1      -0.006   7.632 -14.679  0.00  0.00    +0.231 C 
ATOM     25  O   UNL     1       0.762   8.801 -14.873  0.00  0.00    -0.441 OA
ATOM     26  C   UNL     1       1.761   8.395 -15.771  0.00  0.00    +0.341 C 
ATOM     27  O   UNL     1       2.708   9.221 -15.984  0.00  0.00    -0.245 OA
ATOM     28  C   UNL     1       1.847   6.928 -15.639  0.00  0.00    +0.077 C 
ENDBRANCH  10  23
ENDBRANCH   1   2
BRANCH   1  33
ATOM     29  C   UNL     1       4.353   6.778  -2.036  0.00  0.00    +0.175 C 
ATOM     30  C   UNL     1       3.980   5.179  -2.512  0.00  0.00    +0.186 C 
ATOM     31  O   UNL     1       2.540   5.375  -2.936  0.00  0.00    -0.220 OA
ATOM     32  C   UNL     1       4.724   5.181  -3.966  0.00  0.00    +0.097 C 
ATOM     33  C   UNL     1       3.571   5.715  -5.013  0.00  0.00    +0.238 C 
ATOM     34  O   UNL     1       3.230   6.904  -4.209  0.00  0.00    -0.330 OA
ATOM     35  C   UNL     1       4.231   7.683  -3.493  0.00  0.00    +0.147 C 
ATOM     36  C   UNL     1       5.689   7.185  -4.084  0.00  0.00    +0.035 C 
BRANCH  29  37
ATOM     37  O   UNL     1       2.957   7.151  -1.624  0.00  0.00    -0.328 OA
BRANCH  37  42
ATOM     38  C   UNL     1       3.724   9.325   1.499  0.00  0.00    +0.175 C 
ATOM     39  C   UNL     1       4.927   8.110   1.403  0.00  0.00    +0.186 C 
ATOM     40  O   UNL     1       4.151   6.924   1.907  0.00  0.00    -0.220 OA
ATOM     41  C   UNL     1       4.557   7.878  -0.177  0.00  0.00    +0.097 C 
ATOM     42  C   UNL     1       3.157   6.995  -0.119  0.00  0.00    +0.238 C 
ATOM     43  O   UNL     1       2.288   8.229   0.139  0.00  0.00    -0.330 OA
ATOM     44  C   UNL     1       2.390   8.266   1.642  0.00  0.00    +0.147 C 
ATOM     45  C   UNL     1       1.368   9.537   1.742  0.00  0.00    +0.035 C 
BRANCH  38  46
ATOM     46  O   UNL     1       3.783   9.634   2.947  0.00  0.00    -0.328 OA
BRANCH  46  54
ATOM     47  C   UNL     1       5.081  12.749   0.110  0.00  0.00    +0.035 C 
ATOM     48  C   UNL     1       4.355  12.732   1.583  0.00  0.00    +0.151 C 
ATOM     49  C   UNL     1       5.842  13.098   2.347  0.00  0.00    +0.209 C 
ATOM     50  O   UNL     1       5.203  13.225   3.691  0.00  0.00    -0.218 OA
ATOM     51  C   UNL     1       6.415  11.490   2.485  0.00  0.00    +0.190 C 
ATOM     52  O   UNL     1       7.494  11.954   3.437  0.00  0.00    -0.220 OA
ATOM     53  C   UNL     1       5.471  10.969   3.706  0.00  0.00    +0.097 C 
ATOM     54  C   UNL     1       3.937  11.129   3.102  0.00  0.00    +0.238 C 
ATOM     55  O   UNL     1       4.430  11.232   1.655  0.00  0.00    -0.330 OA
ENDBRANCH  46  54
ENDBRANCH  38  46
ENDBRANCH  37  42
ENDBRANCH  29  37
ENDBRANCH   1  33
TORSDOF 7
ENDMDL
MODEL 7
REMARK VINA RESULT:      -8.5      4.224      9.257
REMARK  Name = 
REMARK  7 active torsions:
REMARK  status: ('A' for Active; 'I' for Inactive)
REMARK    1  A    between atoms: C_4  and  O_5
REMARK    2  A    between atoms: O_5  and  C_6
REMARK    3  A    between atoms: C_10  and  O_11
REMARK    4  A    between atoms: O_11  and  C_12
REMARK    5  A    between atoms: C_16  and  O_17
REMARK    6  A    between atoms: O_17  and  C_18
REMARK    7  A    between atoms: C_33  and  C_34
REMARK                            x       y       z     vdW  Elec       q    Type
REMARK                         _______ _______ _______ _____ _____    ______ ____
ROOT
ATOM      1  O   UNL     1       2.149   5.221  -4.441  0.00  0.00    -0.333 OA
ENDROOT
BRANCH   1   2
ATOM      2  C   UNL     1       2.444   5.929  -3.137  0.00  0.00    +0.118 C 
ATOM      3  C   UNL     1       4.033   5.481  -3.134  0.00  0.00    +0.030 C 
ATOM      4  C   UNL     1       4.626   6.566  -2.047  0.00  0.00    +0.002 C 
ATOM      5  C   UNL     1       3.761   7.752  -2.751  0.00  0.00    +0.000 C 
ATOM      6  C   UNL     1       3.137   8.697  -1.873  0.00  0.00    +0.002 C 
ATOM      7  C   UNL     1       4.206   8.480  -0.677  0.00  0.00    +0.028 C 
ATOM      8  C   UNL     1       3.686   9.756   0.127  0.00  0.00    +0.129 C 
ATOM      9  C   UNL     1       4.329   9.589   1.389  0.00  0.00    +0.057 C 
ATOM     10  C   UNL     1       3.831  10.865   2.250  0.00  0.00    +0.027 C 
ATOM     11  C   UNL     1       2.510  11.144   1.325  0.00  0.00    +0.007 C 
ATOM     12  C   UNL     1       5.696   9.303   1.423  0.00  0.00    +0.005 C 
ATOM     13  C   UNL     1       3.424   8.454   2.154  0.00  0.00    +0.154 C 
ATOM     14  O   UNL     1       4.426   8.303   3.284  0.00  0.00    -0.223 OA
ATOM     15  C   UNL     1       4.108   7.227   1.294  0.00  0.00    +0.033 C 
ATOM     16  O   UNL     1       4.029  10.744  -0.734  0.00  0.00    -0.226 OA
ATOM     17  C   UNL     1       2.327   9.828   0.560  0.00  0.00    +0.031 C 
ATOM     18  C   UNL     1       3.139   7.349  -0.007  0.00  0.00    +0.005 C 
ATOM     19  C   UNL     1       3.676   6.090  -0.840  0.00  0.00    +0.000 C 
ATOM     20  C   UNL     1       4.777   5.395  -0.030  0.00  0.00    +0.000 C 
ATOM     21  C   UNL     1       2.760   5.058  -1.012  0.00  0.00    +0.002 C 
ATOM     22  C   UNL     1       2.063   4.624  -2.213  0.00  0.00    +0.030 C 
BRANCH  10  23
ATOM     23  C   UNL     1       4.737  11.876   1.400  0.00  0.00    +0.005 C 
ATOM     24  C   UNL     1       6.155  12.164   1.796  0.00  0.00    +0.231 C 
ATOM     25  O   UNL     1       6.549  12.819   0.609  0.00  0.00    -0.441 OA
ATOM     26  C   UNL     1       5.468  13.667   0.324  0.00  0.00    +0.341 C 
ATOM     27  O   UNL     1       5.485  14.254  -0.807  0.00  0.00    -0.245 OA
ATOM     28  C   UNL     1       4.309  13.091   1.033  0.00  0.00    +0.077 C 
ENDBRANCH  10  23
ENDBRANCH   1   2
BRANCH   1  33
ATOM     29  C   UNL     1       2.527   5.434  -8.345  0.00  0.00    +0.175 C 
ATOM     30  C   UNL     1       3.645   6.491  -7.601  0.00  0.00    +0.186 C 
ATOM     31  O   UNL     1       2.718   7.644  -7.277  0.00  0.00    -0.220 OA
ATOM     32  C   UNL     1       3.736   5.760  -6.144  0.00  0.00    +0.097 C 
ATOM     33  C   UNL     1       2.542   6.468  -5.258  0.00  0.00    +0.238 C 
ATOM     34  O   UNL     1       1.499   6.249  -6.278  0.00  0.00    -0.330 OA
ATOM     35  C   UNL     1       1.428   5.037  -7.084  0.00  0.00    +0.147 C 
ATOM     36  C   UNL     1       2.443   3.958  -6.356  0.00  0.00    +0.035 C 
BRANCH  29  37
ATOM     37  O   UNL     1       1.618   6.508  -8.873  0.00  0.00    -0.328 OA
BRANCH  37  42
ATOM     38  C   UNL     1       1.087   6.959 -12.691  0.00  0.00    +0.175 C 
ATOM     39  C   UNL     1      -0.429   6.565 -11.999  0.00  0.00    +0.186 C 
ATOM     40  O   UNL     1      -0.248   5.088 -11.779  0.00  0.00    -0.220 OA
ATOM     41  C   UNL     1       0.136   7.012 -10.526  0.00  0.00    +0.097 C 
ATOM     42  C   UNL     1       1.084   5.731 -10.073  0.00  0.00    +0.238 C 
ATOM     43  O   UNL     1       2.270   6.197 -10.922  0.00  0.00    -0.330 OA
ATOM     44  C   UNL     1       1.894   5.528 -12.219  0.00  0.00    +0.147 C 
ATOM     45  C   UNL     1       3.263   6.038 -12.950  0.00  0.00    +0.035 C 
BRANCH  38  46
ATOM     46  O   UNL     1       0.859   6.509 -14.085  0.00  0.00    -0.328 OA
BRANCH  46  54
ATOM     47  C   UNL     1      -1.468   6.559 -17.828  0.00  0.00    +0.035 C 
ATOM     48  C   UNL     1      -1.189   7.620 -16.606  0.00  0.00    +0.151 C 
ATOM     49  C   UNL     1      -0.031   8.446 -17.557  0.00  0.00    +0.209 C 
ATOM     50  O   UNL     1       0.159   9.512 -16.527  0.00  0.00    -0.218 OA
ATOM     51  C   UNL     1       1.315   7.463 -17.162  0.00  0.00    +0.190 C 
ATOM     52  O   UNL     1       2.245   8.490 -17.765  0.00  0.00    -0.220 OA
ATOM     53  C   UNL     1       1.605   7.994 -15.649  0.00  0.00    +0.097 C 
ATOM     54  C   UNL     1       0.202   7.640 -14.842  0.00  0.00    +0.238 C 
ATOM     55  O   UNL     1      -0.265   6.654 -15.917  0.00  0.00    -0.330 OA
ENDBRANCH  46  54
ENDBRANCH  38  46
ENDBRANCH  37  42
ENDBRANCH  29  37
ENDBRANCH   1  33
TORSDOF 7
ENDMDL
MODEL 8
REMARK VINA RESULT:      -8.3      2.939      5.780
REMARK  Name = 
REMARK  7 active torsions:
REMARK  status: ('A' for Active; 'I' for Inactive)
REMARK    1  A    between atoms: C_4  and  O_5
REMARK    2  A    between atoms: O_5  and  C_6
REMARK    3  A    between atoms: C_10  and  O_11
REMARK    4  A    between atoms: O_11  and  C_12
REMARK    5  A    between atoms: C_16  and  O_17
REMARK    6  A    between atoms: O_17  and  C_18
REMARK    7  A    between atoms: C_33  and  C_34
REMARK                            x       y       z     vdW  Elec       q    Type
REMARK                         _______ _______ _______ _____ _____    ______ ____
ROOT
ATOM      1  O   UNL     1       2.204   7.256  -0.259  0.00  0.00    -0.333 OA
ENDROOT
BRANCH   1   2
ATOM      2  C   UNL     1       2.634   8.603   0.278  0.00  0.00    +0.118 C 
ATOM      3  C   UNL     1       2.964   8.013   1.785  0.00  0.00    +0.030 C 
ATOM      4  C   UNL     1       3.905   9.234   2.362  0.00  0.00    +0.002 C 
ATOM      5  C   UNL     1       4.704   9.297   0.946  0.00  0.00    +0.000 C 
ATOM      6  C   UNL     1       5.027  10.601   0.449  0.00  0.00    +0.002 C 
ATOM      7  C   UNL     1       5.035  11.292   1.913  0.00  0.00    +0.028 C 
ATOM      8  C   UNL     1       5.707  12.631   1.365  0.00  0.00    +0.129 C 
ATOM      9  C   UNL     1       5.551  13.513   2.476  0.00  0.00    +0.057 C 
ATOM     10  C   UNL     1       6.220  14.897   1.969  0.00  0.00    +0.027 C 
ATOM     11  C   UNL     1       6.086  14.535   0.378  0.00  0.00    +0.007 C 
ATOM     12  C   UNL     1       5.912  13.071   3.750  0.00  0.00    +0.005 C 
ATOM     13  C   UNL     1       3.984  13.993   2.390  0.00  0.00    +0.154 C 
ATOM     14  O   UNL     1       4.035  14.669   3.748  0.00  0.00    -0.223 OA
ATOM     15  C   UNL     1       3.442  12.580   3.039  0.00  0.00    +0.033 C 
ATOM     16  O   UNL     1       6.917  12.158   0.981  0.00  0.00    -0.226 OA
ATOM     17  C   UNL     1       5.053  13.402   0.356  0.00  0.00    +0.031 C 
ATOM     18  C   UNL     1       3.422  11.734   1.651  0.00  0.00    +0.005 C 
ATOM     19  C   UNL     1       2.779  10.371   2.196  0.00  0.00    +0.000 C 
ATOM     20  C   UNL     1       2.483  10.528   3.692  0.00  0.00    +0.000 C 
ATOM     21  C   UNL     1       1.520  10.065   1.691  0.00  0.00    +0.002 C 
ATOM     22  C   UNL     1       1.119   9.021   0.761  0.00  0.00    +0.030 C 
BRANCH  10  23
ATOM     23  C   UNL     1       7.700  14.293   2.062  0.00  0.00    +0.005 C 
ATOM     24  C   UNL     1       8.309  13.938   3.386  0.00  0.00    +0.231 C 
ATOM     25  O   UNL     1       9.412  13.208   2.893  0.00  0.00    -0.441 OA
ATOM     26  C   UNL     1       9.881  13.995   1.831  0.00  0.00    +0.341 C 
ATOM     27  O   UNL     1      10.778  13.477   1.087  0.00  0.00    -0.245 OA
ATOM     28  C   UNL     1       8.743  14.843   1.427  0.00  0.00    +0.077 C 
ENDBRANCH  10  23
ENDBRANCH   1   2
BRANCH   1  33
ATOM     29  C   UNL     1       2.598   5.496  -3.748  0.00  0.00    +0.175 C 
ATOM     30  C   UNL     1       4.030   5.295  -2.838  0.00  0.00    +0.186 C 
ATOM     31  O   UNL     1       4.659   6.654  -3.061  0.00  0.00    -0.220 OA
ATOM     32  C   UNL     1       3.399   5.496  -1.346  0.00  0.00    +0.097 C 
ATOM     33  C   UNL     1       3.505   7.117  -1.074  0.00  0.00    +0.238 C 
ATOM     34  O   UNL     1       2.861   7.488  -2.349  0.00  0.00    -0.330 OA
ATOM     35  C   UNL     1       1.749   6.737  -2.916  0.00  0.00    +0.147 C 
ATOM     36  C   UNL     1       1.215   5.749  -1.707  0.00  0.00    +0.035 C 
BRANCH  29  37
ATOM     37  O   UNL     1       3.171   6.473  -4.735  0.00  0.00    -0.328 OA
BRANCH  37  42
ATOM     38  C   UNL     1       3.904   6.366  -8.545  0.00  0.00    +0.175 C 
ATOM     39  C   UNL     1       2.262   6.808  -8.344  0.00  0.00    +0.186 C 
ATOM     40  O   UNL     1       1.664   5.471  -8.001  0.00  0.00    -0.220 OA
ATOM     41  C   UNL     1       2.575   7.240  -6.794  0.00  0.00    +0.097 C 
ATOM     42  C   UNL     1       2.658   5.789  -5.999  0.00  0.00    +0.238 C 
ATOM     43  O   UNL     1       4.096   5.523  -6.456  0.00  0.00    -0.330 OA
ATOM     44  C   UNL     1       3.793   4.848  -7.768  0.00  0.00    +0.147 C 
ATOM     45  C   UNL     1       5.376   4.564  -8.057  0.00  0.00    +0.035 C 
BRANCH  38  46
ATOM     46  O   UNL     1       3.854   5.800  -9.913  0.00  0.00    -0.328 OA
BRANCH  46  54
ATOM     47  C   UNL     1       5.729   5.320 -13.874  0.00  0.00    +0.035 C 
ATOM     48  C   UNL     1       5.192   6.585 -12.976  0.00  0.00    +0.151 C 
ATOM     49  C   UNL     1       6.792   6.951 -12.491  0.00  0.00    +0.209 C 
ATOM     50  O   UNL     1       6.368   8.188 -11.770  0.00  0.00    -0.218 OA
ATOM     51  C   UNL     1       6.861   5.885 -11.152  0.00  0.00    +0.190 C 
ATOM     52  O   UNL     1       8.124   6.563 -10.674  0.00  0.00    -0.220 OA
ATOM     53  C   UNL     1       5.938   6.713 -10.096  0.00  0.00    +0.097 C 
ATOM     54  C   UNL     1       4.470   6.805 -10.859  0.00  0.00    +0.238 C 
ATOM     55  O   UNL     1       4.815   5.678 -11.837  0.00  0.00    -0.330 OA
ENDBRANCH  46  54
ENDBRANCH  38  46
ENDBRANCH  37  42
ENDBRANCH  29  37
ENDBRANCH   1  33
TORSDOF 7
ENDMDL
MODEL 9
REMARK VINA RESULT:      -8.3      2.711      5.434
REMARK  Name = 
REMARK  7 active torsions:
REMARK  status: ('A' for Active; 'I' for Inactive)
REMARK    1  A    between atoms: C_4  and  O_5
REMARK    2  A    between atoms: O_5  and  C_6
REMARK    3  A    between atoms: C_10  and  O_11
REMARK    4  A    between atoms: O_11  and  C_12
REMARK    5  A    between atoms: C_16  and  O_17
REMARK    6  A    between atoms: O_17  and  C_18
REMARK    7  A    between atoms: C_33  and  C_34
REMARK                            x       y       z     vdW  Elec       q    Type
REMARK                         _______ _______ _______ _____ _____    ______ ____
ROOT
ATOM      1  O   UNL     1       0.354   8.404   0.830  0.00  0.00    -0.333 OA
ENDROOT
BRANCH   1   2
ATOM      2  C   UNL     1       1.397   9.453   1.147  0.00  0.00    +0.118 C 
ATOM      3  C   UNL     1       2.593   8.340   1.388  0.00  0.00    +0.030 C 
ATOM      4  C   UNL     1       3.911   9.317   1.261  0.00  0.00    +0.002 C 
ATOM      5  C   UNL     1       3.255  10.045  -0.038  0.00  0.00    +0.000 C 
ATOM      6  C   UNL     1       3.415  11.466  -0.126  0.00  0.00    +0.002 C 
ATOM      7  C   UNL     1       4.767  11.493   0.764  0.00  0.00    +0.028 C 
ATOM      8  C   UNL     1       5.088  13.007   0.375  0.00  0.00    +0.129 C 
ATOM      9  C   UNL     1       6.126  13.333   1.297  0.00  0.00    +0.057 C 
ATOM     10  C   UNL     1       6.490  14.869   0.943  0.00  0.00    +0.027 C 
ATOM     11  C   UNL     1       5.064  15.178   0.202  0.00  0.00    +0.007 C 
ATOM     12  C   UNL     1       7.199  12.453   1.451  0.00  0.00    +0.005 C 
ATOM     13  C   UNL     1       5.336  13.623   2.706  0.00  0.00    +0.154 C 
ATOM     14  O   UNL     1       6.623  13.685   3.507  0.00  0.00    -0.223 OA
ATOM     15  C   UNL     1       5.144  12.017   3.011  0.00  0.00    +0.033 C 
ATOM     16  O   UNL     1       5.316  12.874  -0.954  0.00  0.00    -0.226 OA
ATOM     17  C   UNL     1       4.156  14.043   0.690  0.00  0.00    +0.031 C 
ATOM     18  C   UNL     1       3.801  11.816   2.117  0.00  0.00    +0.005 C 
ATOM     19  C   UNL     1       3.487  10.285   2.473  0.00  0.00    +0.000 C 
ATOM     20  C   UNL     1       4.545   9.781   3.463  0.00  0.00    +0.000 C 
ATOM     21  C   UNL     1       2.312  10.071   3.185  0.00  0.00    +0.002 C 
ATOM     22  C   UNL     1       1.063   9.461   2.756  0.00  0.00    +0.030 C 
BRANCH  10  23
ATOM     23  C   UNL     1       7.204  14.454  -0.429  0.00  0.00    +0.005 C 
ATOM     24  C   UNL     1       8.665  14.116  -0.470  0.00  0.00    +0.231 C 
ATOM     25  O   UNL     1       8.689  13.556  -1.765  0.00  0.00    -0.441 OA
ATOM     26  C   UNL     1       7.915  14.446  -2.525  0.00  0.00    +0.341 C 
ATOM     27  O   UNL     1       7.623  14.081  -3.711  0.00  0.00    -0.245 OA
ATOM     28  C   UNL     1       7.061  15.162  -1.558  0.00  0.00    +0.077 C 
ENDBRANCH  10  23
ENDBRANCH   1   2
BRANCH   1  33
ATOM     29  C   UNL     1      -0.249   5.825  -2.071  0.00  0.00    +0.175 C 
ATOM     30  C   UNL     1       0.967   5.238  -1.024  0.00  0.00    +0.186 C 
ATOM     31  O   UNL     1       2.140   6.056  -1.522  0.00  0.00    -0.220 OA
ATOM     32  C   UNL     1       0.561   6.081   0.314  0.00  0.00    +0.097 C 
ATOM     33  C   UNL     1       1.411   7.486   0.185  0.00  0.00    +0.238 C 
ATOM     34  O   UNL     1       0.957   7.766  -1.191  0.00  0.00    -0.330 OA
ATOM     35  C   UNL     1      -0.398   7.484  -1.645  0.00  0.00    +0.147 C 
ATOM     36  C   UNL     1      -1.275   7.194  -0.278  0.00  0.00    +0.035 C 
BRANCH  29  37
ATOM     37  O   UNL     1       0.669   6.145  -3.217  0.00  0.00    -0.328 OA
BRANCH  37  42
ATOM     38  C   UNL     1       0.638   5.694  -7.072  0.00  0.00    +0.175 C 
ATOM     39  C   UNL     1      -0.921   6.221  -6.598  0.00  0.00    +0.186 C 
ATOM     40  O   UNL     1      -1.474   4.943  -6.029  0.00  0.00    -0.220 OA
ATOM     41  C   UNL     1      -0.299   6.765  -5.183  0.00  0.00    +0.097 C 
ATOM     42  C   UNL     1      -0.099   5.382  -4.293  0.00  0.00    +0.238 C 
ATOM     43  O   UNL     1       1.213   5.018  -4.993  0.00  0.00    -0.330 OA
ATOM     44  C   UNL     1       0.642   4.251  -6.157  0.00  0.00    +0.147 C 
ATOM     45  C   UNL     1       2.130   3.877  -6.720  0.00  0.00    +0.035 C 
BRANCH  38  46
ATOM     46  O   UNL     1       0.306   5.021  -8.350  0.00  0.00    -0.328 OA
BRANCH  46  54
ATOM     47  C   UNL     1      -0.872   7.724 -11.626  0.00  0.00    +0.035 C 
ATOM     48  C   UNL     1       0.547   7.244 -10.955  0.00  0.00    +0.151 C 
ATOM     49  C   UNL     1       0.807   6.139 -12.235  0.00  0.00    +0.209 C 
ATOM     50  O   UNL     1       2.164   5.767 -11.735  0.00  0.00    -0.218 OA
ATOM     51  C   UNL     1      -0.078   4.831 -11.575  0.00  0.00    +0.190 C 
ATOM     52  O   UNL     1       0.524   3.901 -12.603  0.00  0.00    -0.220 OA
ATOM     53  C   UNL     1       0.970   4.345 -10.427  0.00  0.00    +0.097 C 
ATOM     54  C   UNL     1       1.112   5.675  -9.449  0.00  0.00    +0.238 C 
ATOM     55  O   UNL     1      -0.162   6.320 -10.003  0.00  0.00    -0.330 OA
ENDBRANCH  46  54
ENDBRANCH  38  46
ENDBRANCH  37  42
ENDBRANCH  29  37
ENDBRANCH   1  33
TORSDOF 7
ENDMDL
