MODEL 1
REMARK VINA RESULT:      -4.8      0.000      0.000
REMARK  Name = 
REMARK  3 active torsions:
REMARK  status: ('A' for Active; 'I' for Inactive)
REMARK    1  A    between atoms: C_2  and  O_4
REMARK    2  A    between atoms: O_4  and  C_5
REMARK    3  A    between atoms: C_5  and  C_7
REMARK                            x       y       z     vdW  Elec       q    Type
REMARK                         _______ _______ _______ _____ _____    ______ ____
ROOT
ATOM      1  C   UNL     1       6.634   5.855 -11.172  0.00  0.00    +0.294 C 
ATOM      2 CL   UNL     1       5.410   7.257 -10.766  0.00  0.00    -0.073 Cl
ENDROOT
BRANCH   1   3
ATOM      3  C   UNL     1       7.396   5.929  -9.754  0.00  0.00    +0.437 C 
ATOM      4  F   UNL     1       6.313   5.868  -8.880  0.00  0.00    -0.166 F 
ATOM      5  F   UNL     1       8.191   4.884  -9.546  0.00  0.00    -0.166 F 
ATOM      6  F   UNL     1       7.937   7.171  -9.618  0.00  0.00    -0.166 F 
ENDBRANCH   1   3
BRANCH   1   7
ATOM      7  O   UNL     1       7.549   6.773 -11.910  0.00  0.00    -0.278 OA
BRANCH   7   9
ATOM      8  F   UNL     1       7.825   5.095 -13.482  0.00  0.00    -0.166 F 
ATOM      9  C   UNL     1       8.360   5.998 -12.648  0.00  0.00    +0.451 C 
ATOM     10  F   UNL     1       9.679   6.016 -12.461  0.00  0.00    -0.166 F 
ENDBRANCH   7   9
ENDBRANCH   1   7
TORSDOF 3
ENDMDL
MODEL 2
REMARK VINA RESULT:      -4.6      1.316      3.553
REMARK  Name = 
REMARK  3 active torsions:
REMARK  status: ('A' for Active; 'I' for Inactive)
REMARK    1  A    between atoms: C_2  and  O_4
REMARK    2  A    between atoms: O_4  and  C_5
REMARK    3  A    between atoms: C_5  and  C_7
REMARK                            x       y       z     vdW  Elec       q    Type
REMARK                         _______ _______ _______ _____ _____    ______ ____
ROOT
ATOM      1  C   UNL     1       7.621   6.811 -10.965  0.00  0.00    +0.294 C 
ATOM      2 CL   UNL     1       6.503   8.198 -11.642  0.00  0.00    -0.073 Cl
ENDROOT
BRANCH   1   3
ATOM      3  C   UNL     1       7.814   6.089 -12.392  0.00  0.00    +0.437 C 
ATOM      4  F   UNL     1       9.192   6.213 -12.556  0.00  0.00    -0.166 F 
ATOM      5  F   UNL     1       7.486   4.801 -12.361  0.00  0.00    -0.166 F 
ATOM      6  F   UNL     1       7.237   6.864 -13.352  0.00  0.00    -0.166 F 
ENDBRANCH   1   3
BRANCH   1   7
ATOM      7  O   UNL     1       6.455   5.997 -10.514  0.00  0.00    -0.278 OA
BRANCH   7   9
ATOM      8  F   UNL     1       7.980   5.028  -9.065  0.00  0.00    -0.166 F 
ATOM      9  C   UNL     1       6.760   5.533  -9.291  0.00  0.00    +0.451 C 
ATOM     10  F   UNL     1       5.827   5.438  -8.344  0.00  0.00    -0.166 F 
ENDBRANCH   7   9
ENDBRANCH   1   7
TORSDOF 3
ENDMDL
MODEL 3
REMARK VINA RESULT:      -4.6     10.924     12.667
REMARK  Name = 
REMARK  3 active torsions:
REMARK  status: ('A' for Active; 'I' for Inactive)
REMARK    1  A    between atoms: C_2  and  O_4
REMARK    2  A    between atoms: O_4  and  C_5
REMARK    3  A    between atoms: C_5  and  C_7
REMARK                            x       y       z     vdW  Elec       q    Type
REMARK                         _______ _______ _______ _____ _____    ______ ____
ROOT
ATOM      1  C   UNL     1      -1.786   5.808  -4.389  0.00  0.00    +0.294 C 
ATOM      2 CL   UNL     1      -2.026   7.671  -4.072  0.00  0.00    -0.073 Cl
ENDROOT
BRANCH   1   3
ATOM      3  C   UNL     1      -2.160   5.890  -5.954  0.00  0.00    +0.437 C 
ATOM      4  F   UNL     1      -2.845   7.103  -5.988  0.00  0.00    -0.166 F 
ATOM      5  F   UNL     1      -1.085   5.967  -6.733  0.00  0.00    -0.166 F 
ATOM      6  F   UNL     1      -3.073   4.920  -6.233  0.00  0.00    -0.166 F 
ENDBRANCH   1   3
BRANCH   1   7
ATOM      7  O   UNL     1      -3.155   5.477  -3.899  0.00  0.00    -0.278 OA
BRANCH   7   9
ATOM      8  F   UNL     1      -2.396   5.298  -1.719  0.00  0.00    -0.166 F 
ATOM      9  C   UNL     1      -3.211   5.869  -2.616  0.00  0.00    +0.451 C 
ATOM     10  F   UNL     1      -4.156   6.710  -2.199  0.00  0.00    -0.166 F 
ENDBRANCH   7   9
ENDBRANCH   1   7
TORSDOF 3
ENDMDL
MODEL 4
REMARK VINA RESULT:      -4.5      1.571      3.558
REMARK  Name = 
REMARK  3 active torsions:
REMARK  status: ('A' for Active; 'I' for Inactive)
REMARK    1  A    between atoms: C_2  and  O_4
REMARK    2  A    between atoms: O_4  and  C_5
REMARK    3  A    between atoms: C_5  and  C_7
REMARK                            x       y       z     vdW  Elec       q    Type
REMARK                         _______ _______ _______ _____ _____    ______ ____
ROOT
ATOM      1  C   UNL     1       7.580   6.483 -10.773  0.00  0.00    +0.294 C 
ATOM      2 CL   UNL     1       6.669   7.971 -11.537  0.00  0.00    -0.073 Cl
ENDROOT
BRANCH   1   3
ATOM      3  C   UNL     1       8.230   5.996 -12.165  0.00  0.00    +0.437 C 
ATOM      4  F   UNL     1       7.815   4.667 -12.188  0.00  0.00    -0.166 F 
ATOM      5  F   UNL     1       7.725   6.636 -13.215  0.00  0.00    -0.166 F 
ATOM      6  F   UNL     1       9.584   5.979 -12.029  0.00  0.00    -0.166 F 
ENDBRANCH   1   3
BRANCH   1   7
ATOM      7  O   UNL     1       6.366   5.619 -10.835  0.00  0.00    -0.278 OA
BRANCH   7   9
ATOM      8  F   UNL     1       4.710   6.439  -9.440  0.00  0.00    -0.166 F 
ATOM      9  C   UNL     1       5.793   5.672  -9.622  0.00  0.00    +0.451 C 
ATOM     10  F   UNL     1       6.364   5.086  -8.570  0.00  0.00    -0.166 F 
ENDBRANCH   7   9
ENDBRANCH   1   7
TORSDOF 3
ENDMDL
MODEL 5
REMARK VINA RESULT:      -4.4      1.342      2.056
REMARK  Name = 
REMARK  3 active torsions:
REMARK  status: ('A' for Active; 'I' for Inactive)
REMARK    1  A    between atoms: C_2  and  O_4
REMARK    2  A    between atoms: O_4  and  C_5
REMARK    3  A    between atoms: C_5  and  C_7
REMARK                            x       y       z     vdW  Elec       q    Type
REMARK                         _______ _______ _______ _____ _____    ______ ____
ROOT
ATOM      1  C   UNL     1       6.215   6.133 -11.661  0.00  0.00    +0.294 C 
ATOM      2 CL   UNL     1       6.550   8.003 -11.509  0.00  0.00    -0.073 Cl
ENDROOT
BRANCH   1   3
ATOM      3  C   UNL     1       5.435   6.024 -10.255  0.00  0.00    +0.437 C 
ATOM      4  F   UNL     1       6.508   5.887  -9.378  0.00  0.00    -0.166 F 
ATOM      5  F   UNL     1       4.760   7.131  -9.959  0.00  0.00    -0.166 F 
ATOM      6  F   UNL     1       4.755   4.845 -10.227  0.00  0.00    -0.166 F 
ENDBRANCH   1   3
BRANCH   1   7
ATOM      7  O   UNL     1       7.566   5.778 -11.138  0.00  0.00    -0.278 OA
BRANCH   7   9
ATOM      8  F   UNL     1       7.896   5.202 -13.356  0.00  0.00    -0.166 F 
ATOM      9  C   UNL     1       8.379   5.684 -12.203  0.00  0.00    +0.451 C 
ATOM     10  F   UNL     1       9.684   5.927 -12.090  0.00  0.00    -0.166 F 
ENDBRANCH   7   9
ENDBRANCH   1   7
TORSDOF 3
ENDMDL
MODEL 6
REMARK VINA RESULT:      -4.4     10.435     11.747
REMARK  Name = 
REMARK  3 active torsions:
REMARK  status: ('A' for Active; 'I' for Inactive)
REMARK    1  A    between atoms: C_2  and  O_4
REMARK    2  A    between atoms: O_4  and  C_5
REMARK    3  A    between atoms: C_5  and  C_7
REMARK                            x       y       z     vdW  Elec       q    Type
REMARK                         _______ _______ _______ _____ _____    ______ ____
ROOT
ATOM      1  C   UNL     1      -2.735   6.908  -4.839  0.00  0.00    +0.294 C 
ATOM      2 CL   UNL     1      -1.839   8.500  -4.297  0.00  0.00    -0.073 Cl
ENDROOT
BRANCH   1   3
ATOM      3  C   UNL     1      -2.672   6.219  -3.383  0.00  0.00    +0.437 C 
ATOM      4  F   UNL     1      -3.573   5.171  -3.559  0.00  0.00    -0.166 F 
ATOM      5  F   UNL     1      -1.470   5.727  -3.103  0.00  0.00    -0.166 F 
ATOM      6  F   UNL     1      -3.233   7.067  -2.478  0.00  0.00    -0.166 F 
ENDBRANCH   1   3
BRANCH   1   7
ATOM      7  O   UNL     1      -1.482   6.301  -5.373  0.00  0.00    -0.278 OA
BRANCH   7   9
ATOM      8  F   UNL     1      -3.133   5.326  -6.671  0.00  0.00    -0.166 F 
ATOM      9  C   UNL     1      -1.835   5.559  -6.435  0.00  0.00    +0.451 C 
ATOM     10  F   UNL     1      -0.915   4.938  -7.172  0.00  0.00    -0.166 F 
ENDBRANCH   7   9
ENDBRANCH   1   7
TORSDOF 3
ENDMDL
MODEL 7
REMARK VINA RESULT:      -4.4      9.427     10.819
REMARK  Name = 
REMARK  3 active torsions:
REMARK  status: ('A' for Active; 'I' for Inactive)
REMARK    1  A    between atoms: C_2  and  O_4
REMARK    2  A    between atoms: O_4  and  C_5
REMARK    3  A    between atoms: C_5  and  C_7
REMARK                            x       y       z     vdW  Elec       q    Type
REMARK                         _______ _______ _______ _____ _____    ______ ____
ROOT
ATOM      1  C   UNL     1      -1.671   6.004  -4.736  0.00  0.00    +0.294 C 
ATOM      2 CL   UNL     1      -2.499   5.685  -6.422  0.00  0.00    -0.073 Cl
ENDROOT
BRANCH   1   3
ATOM      3  C   UNL     1      -2.118   7.551  -4.661  0.00  0.00    +0.437 C 
ATOM      4  F   UNL     1      -0.926   8.178  -5.017  0.00  0.00    -0.166 F 
ATOM      5  F   UNL     1      -3.060   7.854  -5.548  0.00  0.00    -0.166 F 
ATOM      6  F   UNL     1      -2.352   7.871  -3.358  0.00  0.00    -0.166 F 
ENDBRANCH   1   3
BRANCH   1   7
ATOM      7  O   UNL     1      -0.336   6.239  -5.358  0.00  0.00    -0.278 OA
BRANCH   7   9
ATOM      8  F   UNL     1       0.515   4.195  -6.036  0.00  0.00    -0.166 F 
ATOM      9  C   UNL     1       0.405   5.149  -5.101  0.00  0.00    +0.451 C 
ATOM     10  F   UNL     1       0.913   4.937  -3.888  0.00  0.00    -0.166 F 
ENDBRANCH   7   9
ENDBRANCH   1   7
TORSDOF 3
ENDMDL
MODEL 8
REMARK VINA RESULT:      -4.3      1.899      2.767
REMARK  Name = 
REMARK  3 active torsions:
REMARK  status: ('A' for Active; 'I' for Inactive)
REMARK    1  A    between atoms: C_2  and  O_4
REMARK    2  A    between atoms: O_4  and  C_5
REMARK    3  A    between atoms: C_5  and  C_7
REMARK                            x       y       z     vdW  Elec       q    Type
REMARK                         _______ _______ _______ _____ _____    ______ ____
ROOT
ATOM      1  C   UNL     1       6.116   6.246 -10.671  0.00  0.00    +0.294 C 
ATOM      2 CL   UNL     1       6.337   7.999 -11.382  0.00  0.00    -0.073 Cl
ENDROOT
BRANCH   1   3
ATOM      3  C   UNL     1       7.667   6.069 -10.271  0.00  0.00    +0.437 C 
ATOM      4  F   UNL     1       7.992   7.379  -9.928  0.00  0.00    -0.166 F 
ATOM      5  F   UNL     1       7.835   5.280  -9.215  0.00  0.00    -0.166 F 
ATOM      6  F   UNL     1       8.374   5.774 -11.397  0.00  0.00    -0.166 F 
ENDBRANCH   1   3
BRANCH   1   7
ATOM      7  O   UNL     1       6.210   5.612 -12.018  0.00  0.00    -0.278 OA
BRANCH   7   9
ATOM      8  F   UNL     1       3.988   5.307 -11.439  0.00  0.00    -0.166 F 
ATOM      9  C   UNL     1       4.966   5.230 -12.352  0.00  0.00    +0.451 C 
ATOM     10  F   UNL     1       4.723   4.646 -13.524  0.00  0.00    -0.166 F 
ENDBRANCH   7   9
ENDBRANCH   1   7
TORSDOF 3
ENDMDL
MODEL 9
REMARK VINA RESULT:      -4.3      9.197     10.514
REMARK  Name = 
REMARK  3 active torsions:
REMARK  status: ('A' for Active; 'I' for Inactive)
REMARK    1  A    between atoms: C_2  and  O_4
REMARK    2  A    between atoms: O_4  and  C_5
REMARK    3  A    between atoms: C_5  and  C_7
REMARK                            x       y       z     vdW  Elec       q    Type
REMARK                         _______ _______ _______ _____ _____    ______ ____
ROOT
ATOM      1  C   UNL     1      -1.434   6.000  -4.972  0.00  0.00    +0.294 C 
ATOM      2 CL   UNL     1      -2.650   5.638  -6.393  0.00  0.00    -0.073 Cl
ENDROOT
BRANCH   1   3
ATOM      3  C   UNL     1      -2.059   7.446  -4.629  0.00  0.00    +0.437 C 
ATOM      4  F   UNL     1      -3.025   7.549  -5.628  0.00  0.00    -0.166 F 
ATOM      5  F   UNL     1      -2.649   7.478  -3.438  0.00  0.00    -0.166 F 
ATOM      6  F   UNL     1      -1.122   8.397  -4.894  0.00  0.00    -0.166 F 
ENDBRANCH   1   3
BRANCH   1   7
ATOM      7  O   UNL     1      -0.377   6.485  -5.906  0.00  0.00    -0.278 OA
BRANCH   7   9
ATOM      8  F   UNL     1       0.358   4.298  -6.104  0.00  0.00    -0.166 F 
ATOM      9  C   UNL     1      -0.039   5.441  -6.680  0.00  0.00    +0.451 C 
ATOM     10  F   UNL     1       0.043   5.569  -8.003  0.00  0.00    -0.166 F 
ENDBRANCH   7   9
ENDBRANCH   1   7
TORSDOF 3
ENDMDL
