MODEL 1
REMARK VINA RESULT:      -8.1      0.000      0.000
REMARK  Name = 
REMARK  4 active torsions:
REMARK  status: ('A' for Active; 'I' for Inactive)
REMARK    1  A    between atoms: C_8  and  O_9
REMARK    2  A    between atoms: O_9  and  C_10
REMARK    3  A    between atoms: C_10  and  C_11
REMARK    4  A    between atoms: C_10  and  C_17
REMARK                            x       y       z     vdW  Elec       q    Type
REMARK                         _______ _______ _______ _____ _____    ______ ____
ROOT
ATOM      1  C   UNL     1       1.295   6.610  -5.291  0.00  0.00    +0.160 C 
ENDROOT
BRANCH   1   2
ATOM      2  C   UNL     1       2.700   6.278  -4.996  0.00  0.00    +0.009 A 
ATOM      3  C   UNL     1       3.618   7.210  -4.543  0.00  0.00    -0.002 A 
ATOM      4  C   UNL     1       4.894   6.831  -4.147  0.00  0.00    -0.000 A 
ATOM      5  C   UNL     1       5.086   5.503  -3.831  0.00  0.00    -0.000 A 
ATOM      6  C   UNL     1       4.194   4.587  -4.339  0.00  0.00    -0.000 A 
ATOM      7  C   UNL     1       3.142   4.981  -5.161  0.00  0.00    -0.002 A 
ENDBRANCH   1   2
BRANCH   1   8
ATOM      8  C   UNL     1       1.171   6.699  -6.776  0.00  0.00    +0.009 A 
ATOM      9  C   UNL     1       1.963   7.543  -7.512  0.00  0.00    -0.002 A 
ATOM     10  C   UNL     1       2.238   7.145  -8.815  0.00  0.00    -0.000 A 
ATOM     11  C   UNL     1       1.557   6.091  -9.413  0.00  0.00    -0.000 A 
ATOM     12  C   UNL     1       0.443   5.628  -8.764  0.00  0.00    -0.000 A 
ATOM     13  C   UNL     1       0.302   5.820  -7.408  0.00  0.00    -0.002 A 
ENDBRANCH   1   8
BRANCH   1  14
ATOM     14  O   UNL     1       0.381   5.667  -4.833  0.00  0.00    -0.350 OA
BRANCH  14  19
ATOM     15  C   UNL     1      -1.677   7.749  -0.825  0.00  0.00    +0.090 C 
ATOM     16  N   UNL     1      -1.291   7.125  -1.914  0.00  0.00    -0.274 NA
ATOM     17  C   UNL     1      -1.524   5.599  -1.673  0.00  0.00    +0.060 C 
ATOM     18  C   UNL     1      -0.392   5.074  -2.756  0.00  0.00    +0.046 C 
ATOM     19  C   UNL     1      -0.143   6.443  -3.639  0.00  0.00    +0.119 C 
ATOM     20  C   UNL     1      -1.699   6.432  -4.185  0.00  0.00    +0.046 C 
ATOM     21  C   UNL     1      -2.760   5.361  -2.721  0.00  0.00    +0.017 C 
ATOM     22  C   UNL     1      -3.501   6.537  -2.426  0.00  0.00    +0.017 C 
ATOM     23  C   UNL     1      -2.302   7.488  -3.051  0.00  0.00    +0.060 C 
ENDBRANCH  14  19
ENDBRANCH   1  14
TORSDOF 4
ENDMDL
MODEL 2
REMARK VINA RESULT:      -8.0      3.342      5.099
REMARK  Name = 
REMARK  4 active torsions:
REMARK  status: ('A' for Active; 'I' for Inactive)
REMARK    1  A    between atoms: C_8  and  O_9
REMARK    2  A    between atoms: O_9  and  C_10
REMARK    3  A    between atoms: C_10  and  C_11
REMARK    4  A    between atoms: C_10  and  C_17
REMARK                            x       y       z     vdW  Elec       q    Type
REMARK                         _______ _______ _______ _____ _____    ______ ____
ROOT
ATOM      1  C   UNL     1       3.342   6.154  -8.236  0.00  0.00    +0.160 C 
ENDROOT
BRANCH   1   2
ATOM      2  C   UNL     1       4.426   6.209  -9.233  0.00  0.00    +0.009 A 
ATOM      3  C   UNL     1       4.435   7.101 -10.291  0.00  0.00    -0.002 A 
ATOM      4  C   UNL     1       5.537   7.214 -11.129  0.00  0.00    -0.000 A 
ATOM      5  C   UNL     1       6.740   6.735 -10.654  0.00  0.00    -0.000 A 
ATOM      6  C   UNL     1       6.705   5.806  -9.640  0.00  0.00    -0.000 A 
ATOM      7  C   UNL     1       5.499   5.347  -9.121  0.00  0.00    -0.002 A 
ENDBRANCH   1   2
BRANCH   1   8
ATOM      8  C   UNL     1       2.076   5.893  -8.982  0.00  0.00    +0.009 A 
ATOM      9  C   UNL     1       1.217   6.910  -9.312  0.00  0.00    -0.002 A 
ATOM     10  C   UNL     1       0.460   6.723 -10.463  0.00  0.00    -0.000 A 
ATOM     11  C   UNL     1       0.396   5.490 -11.100  0.00  0.00    -0.000 A 
ATOM     12  C   UNL     1       0.899   4.415 -10.416  0.00  0.00    -0.000 A 
ATOM     13  C   UNL     1       1.844   4.600  -9.432  0.00  0.00    -0.002 A 
ENDBRANCH   1   8
BRANCH   1  14
ATOM     14  O   UNL     1       3.500   5.155  -7.281  0.00  0.00    -0.350 OA
BRANCH  14  19
ATOM     15  C   UNL     1       3.212   7.671  -3.013  0.00  0.00    +0.090 C 
ATOM     16  N   UNL     1       3.348   6.870  -4.045  0.00  0.00    -0.274 NA
ATOM     17  C   UNL     1       4.850   6.444  -4.098  0.00  0.00    +0.060 C 
ATOM     18  C   UNL     1       4.880   6.105  -5.715  0.00  0.00    +0.046 C 
ATOM     19  C   UNL     1       3.270   6.004  -6.046  0.00  0.00    +0.119 C 
ATOM     20  C   UNL     1       3.098   4.697  -5.054  0.00  0.00    +0.046 C 
ATOM     21  C   UNL     1       4.682   4.868  -3.685  0.00  0.00    +0.017 C 
ATOM     22  C   UNL     1       3.734   5.035  -2.639  0.00  0.00    +0.017 C 
ATOM     23  C   UNL     1       2.588   5.543  -3.716  0.00  0.00    +0.060 C 
ENDBRANCH  14  19
ENDBRANCH   1  14
TORSDOF 4
ENDMDL
MODEL 3
REMARK VINA RESULT:      -7.8      3.694      6.711
REMARK  Name = 
REMARK  4 active torsions:
REMARK  status: ('A' for Active; 'I' for Inactive)
REMARK    1  A    between atoms: C_8  and  O_9
REMARK    2  A    between atoms: O_9  and  C_10
REMARK    3  A    between atoms: C_10  and  C_11
REMARK    4  A    between atoms: C_10  and  C_17
REMARK                            x       y       z     vdW  Elec       q    Type
REMARK                         _______ _______ _______ _____ _____    ______ ____
ROOT
ATOM      1  C   UNL     1       3.782   5.982 -10.165  0.00  0.00    +0.160 C 
ENDROOT
BRANCH   1   2
ATOM      2  C   UNL     1       3.374   5.857 -11.576  0.00  0.00    +0.009 A 
ATOM      3  C   UNL     1       4.189   5.312 -12.553  0.00  0.00    -0.002 A 
ATOM      4  C   UNL     1       3.719   5.087 -13.841  0.00  0.00    -0.000 A 
ATOM      5  C   UNL     1       2.352   5.033 -14.011  0.00  0.00    -0.000 A 
ATOM      6  C   UNL     1       1.562   5.632 -13.056  0.00  0.00    -0.000 A 
ATOM      7  C   UNL     1       2.120   6.287 -11.963  0.00  0.00    -0.002 A 
ENDBRANCH   1   2
BRANCH   1   8
ATOM      8  C   UNL     1       5.201   6.444 -10.161  0.00  0.00    +0.009 A 
ATOM      9  C   UNL     1       6.197   5.694  -9.589  0.00  0.00    -0.002 A 
ATOM     10  C   UNL     1       7.465   5.840 -10.138  0.00  0.00    -0.000 A 
ATOM     11  C   UNL     1       7.756   6.856 -11.040  0.00  0.00    -0.000 A 
ATOM     12  C   UNL     1       6.822   7.850 -11.173  0.00  0.00    -0.000 A 
ATOM     13  C   UNL     1       5.505   7.609 -10.852  0.00  0.00    -0.002 A 
ENDBRANCH   1   8
BRANCH   1  14
ATOM     14  O   UNL     1       3.025   6.891  -9.435  0.00  0.00    -0.350 OA
BRANCH  14  19
ATOM     15  C   UNL     1       3.046   4.786  -4.940  0.00  0.00    +0.090 C 
ATOM     16  N   UNL     1       2.887   5.416  -6.082  0.00  0.00    -0.274 NA
ATOM     17  C   UNL     1       1.540   4.914  -6.695  0.00  0.00    +0.060 C 
ATOM     18  C   UNL     1       1.925   5.252  -8.266  0.00  0.00    +0.046 C 
ATOM     19  C   UNL     1       3.207   6.266  -8.065  0.00  0.00    +0.119 C 
ATOM     20  C   UNL     1       2.263   7.390  -7.313  0.00  0.00    +0.046 C 
ATOM     21  C   UNL     1       0.658   6.284  -6.528  0.00  0.00    +0.017 C 
ATOM     22  C   UNL     1       1.082   6.636  -5.218  0.00  0.00    +0.017 C 
ATOM     23  C   UNL     1       2.617   6.922  -5.757  0.00  0.00    +0.060 C 
ENDBRANCH  14  19
ENDBRANCH   1  14
TORSDOF 4
ENDMDL
MODEL 4
REMARK VINA RESULT:      -7.8      3.261      7.654
REMARK  Name = 
REMARK  4 active torsions:
REMARK  status: ('A' for Active; 'I' for Inactive)
REMARK    1  A    between atoms: C_8  and  O_9
REMARK    2  A    between atoms: O_9  and  C_10
REMARK    3  A    between atoms: C_10  and  C_11
REMARK    4  A    between atoms: C_10  and  C_17
REMARK                            x       y       z     vdW  Elec       q    Type
REMARK                         _______ _______ _______ _____ _____    ______ ____
ROOT
ATOM      1  C   UNL     1       2.487   6.345  -7.145  0.00  0.00    +0.160 C 
ENDROOT
BRANCH   1   2
ATOM      2  C   UNL     1       1.033   6.294  -6.908  0.00  0.00    +0.009 A 
ATOM      3  C   UNL     1       0.185   5.442  -7.594  0.00  0.00    -0.002 A 
ATOM      4  C   UNL     1      -1.155   5.327  -7.248  0.00  0.00    -0.000 A 
ATOM      5  C   UNL     1      -1.518   5.751  -5.987  0.00  0.00    -0.000 A 
ATOM      6  C   UNL     1      -0.688   6.643  -5.347  0.00  0.00    -0.000 A 
ATOM      7  C   UNL     1       0.469   7.118  -5.955  0.00  0.00    -0.002 A 
ENDBRANCH   1   2
BRANCH   1   8
ATOM      8  C   UNL     1       3.151   6.121  -5.827  0.00  0.00    +0.009 A 
ATOM      9  C   UNL     1       3.109   4.901  -5.202  0.00  0.00    -0.002 A 
ATOM     10  C   UNL     1       4.189   4.594  -4.383  0.00  0.00    -0.000 A 
ATOM     11  C   UNL     1       5.128   5.554  -4.026  0.00  0.00    -0.000 A 
ATOM     12  C   UNL     1       4.813   6.858  -4.303  0.00  0.00    -0.000 A 
ATOM     13  C   UNL     1       3.911   7.156  -5.300  0.00  0.00    -0.002 A 
ENDBRANCH   1   8
BRANCH   1  14
ATOM     14  O   UNL     1       2.950   5.383  -8.036  0.00  0.00    -0.350 OA
BRANCH  14  19
ATOM     15  C   UNL     1       5.866   7.990 -11.090  0.00  0.00    +0.090 C 
ATOM     16  N   UNL     1       5.120   7.165 -10.392  0.00  0.00    -0.274 NA
ATOM     17  C   UNL     1       3.978   6.673 -11.337  0.00  0.00    +0.060 C 
ATOM     18  C   UNL     1       2.904   6.301 -10.137  0.00  0.00    +0.046 C 
ATOM     19  C   UNL     1       3.899   6.264  -8.825  0.00  0.00    +0.119 C 
ATOM     20  C   UNL     1       4.741   4.986  -9.439  0.00  0.00    +0.046 C 
ATOM     21  C   UNL     1       4.447   5.114 -11.515  0.00  0.00    +0.017 C 
ATOM     22  C   UNL     1       5.841   5.343 -11.678  0.00  0.00    +0.017 C 
ATOM     23  C   UNL     1       5.967   5.879 -10.120  0.00  0.00    +0.060 C 
ENDBRANCH  14  19
ENDBRANCH   1  14
TORSDOF 4
ENDMDL
MODEL 5
REMARK VINA RESULT:      -7.7      4.883      9.365
REMARK  Name = 
REMARK  4 active torsions:
REMARK  status: ('A' for Active; 'I' for Inactive)
REMARK    1  A    between atoms: C_8  and  O_9
REMARK    2  A    between atoms: O_9  and  C_10
REMARK    3  A    between atoms: C_10  and  C_11
REMARK    4  A    between atoms: C_10  and  C_17
REMARK                            x       y       z     vdW  Elec       q    Type
REMARK                         _______ _______ _______ _____ _____    ______ ____
ROOT
ATOM      1  C   UNL     1       3.292   6.458  -9.981  0.00  0.00    +0.160 C 
ENDROOT
BRANCH   1   2
ATOM      2  C   UNL     1       1.927   6.031 -10.337  0.00  0.00    +0.009 A 
ATOM      3  C   UNL     1       1.095   6.769 -11.159  0.00  0.00    -0.002 A 
ATOM      4  C   UNL     1      -0.131   6.269 -11.581  0.00  0.00    -0.000 A 
ATOM      5  C   UNL     1      -0.312   4.904 -11.507  0.00  0.00    -0.000 A 
ATOM      6  C   UNL     1       0.489   4.197 -10.640  0.00  0.00    -0.000 A 
ATOM      7  C   UNL     1       1.439   4.835  -9.849  0.00  0.00    -0.002 A 
ENDBRANCH   1   2
BRANCH   1   8
ATOM      8  C   UNL     1       3.314   6.657  -8.501  0.00  0.00    +0.009 A 
ATOM      9  C   UNL     1       2.447   7.520  -7.881  0.00  0.00    -0.002 A 
ATOM     10  C   UNL     1       2.100   7.206  -6.573  0.00  0.00    -0.000 A 
ATOM     11  C   UNL     1       2.772   6.223  -5.857  0.00  0.00    -0.000 A 
ATOM     12  C   UNL     1       3.942   5.757  -6.398  0.00  0.00    -0.000 A 
ATOM     13  C   UNL     1       4.167   5.857  -7.752  0.00  0.00    -0.002 A 
ENDBRANCH   1   8
BRANCH   1  14
ATOM     14  O   UNL     1       4.280   5.537 -10.311  0.00  0.00    -0.350 OA
BRANCH  14  19
ATOM     15  C   UNL     1       6.531   7.480 -14.285  0.00  0.00    +0.090 C 
ATOM     16  N   UNL     1       6.088   6.883 -13.202  0.00  0.00    -0.274 NA
ATOM     17  C   UNL     1       6.228   5.345 -13.440  0.00  0.00    +0.060 C 
ATOM     18  C   UNL     1       5.047   4.894 -12.375  0.00  0.00    +0.046 C 
ATOM     19  C   UNL     1       4.871   6.276 -11.497  0.00  0.00    +0.119 C 
ATOM     20  C   UNL     1       6.415   6.168 -10.925  0.00  0.00    +0.046 C 
ATOM     21  C   UNL     1       7.429   5.030 -12.371  0.00  0.00    +0.017 C 
ATOM     22  C   UNL     1       8.248   6.157 -12.654  0.00  0.00    +0.017 C 
ATOM     23  C   UNL     1       7.101   7.182 -12.049  0.00  0.00    +0.060 C 
ENDBRANCH  14  19
ENDBRANCH   1  14
TORSDOF 4
ENDMDL
MODEL 6
REMARK VINA RESULT:      -7.7      2.846      6.937
REMARK  Name = 
REMARK  4 active torsions:
REMARK  status: ('A' for Active; 'I' for Inactive)
REMARK    1  A    between atoms: C_8  and  O_9
REMARK    2  A    between atoms: O_9  and  C_10
REMARK    3  A    between atoms: C_10  and  C_11
REMARK    4  A    between atoms: C_10  and  C_17
REMARK                            x       y       z     vdW  Elec       q    Type
REMARK                         _______ _______ _______ _____ _____    ______ ____
ROOT
ATOM      1  C   UNL     1       1.264   6.220  -7.352  0.00  0.00    +0.160 C 
ENDROOT
BRANCH   1   2
ATOM      2  C   UNL     1       0.112   6.202  -6.432  0.00  0.00    +0.009 A 
ATOM      3  C   UNL     1      -0.050   7.116  -5.406  0.00  0.00    -0.002 A 
ATOM      4  C   UNL     1      -1.213   7.150  -4.648  0.00  0.00    -0.000 A 
ATOM      5  C   UNL     1      -2.333   6.553  -5.188  0.00  0.00    -0.000 A 
ATOM      6  C   UNL     1      -2.145   5.605  -6.167  0.00  0.00    -0.000 A 
ATOM      7  C   UNL     1      -0.870   5.244  -6.590  0.00  0.00    -0.002 A 
ENDBRANCH   1   2
BRANCH   1   8
ATOM      8  C   UNL     1       2.488   6.017  -6.521  0.00  0.00    +0.009 A 
ATOM      9  C   UNL     1       3.367   7.041  -6.280  0.00  0.00    -0.002 A 
ATOM     10  C   UNL     1       4.067   6.977  -5.081  0.00  0.00    -0.000 A 
ATOM     11  C   UNL     1       4.062   5.832  -4.294  0.00  0.00    -0.000 A 
ATOM     12  C   UNL     1       3.551   4.695  -4.864  0.00  0.00    -0.000 A 
ATOM     13  C   UNL     1       2.656   4.784  -5.906  0.00  0.00    -0.002 A 
ENDBRANCH   1   8
BRANCH   1  14
ATOM     14  O   UNL     1       1.228   5.227  -8.325  0.00  0.00    -0.350 OA
BRANCH  14  19
ATOM     15  C   UNL     1       0.218   7.653 -12.535  0.00  0.00    +0.090 C 
ATOM     16  N   UNL     1       0.541   6.879 -11.525  0.00  0.00    -0.274 NA
ATOM     17  C   UNL     1      -0.291   5.565 -11.671  0.00  0.00    +0.060 C 
ATOM     18  C   UNL     1      -0.258   5.156 -10.070  0.00  0.00    +0.046 C 
ATOM     19  C   UNL     1       0.964   6.116  -9.525  0.00  0.00    +0.119 C 
ATOM     20  C   UNL     1       2.065   5.337 -10.475  0.00  0.00    +0.046 C 
ATOM     21  C   UNL     1       0.925   4.533 -12.046  0.00  0.00    +0.017 C 
ATOM     22  C   UNL     1       1.625   5.372 -12.956  0.00  0.00    +0.017 C 
ATOM     23  C   UNL     1       2.020   6.417 -11.738  0.00  0.00    +0.060 C 
ENDBRANCH  14  19
ENDBRANCH   1  14
TORSDOF 4
ENDMDL
MODEL 7
REMARK VINA RESULT:      -7.6      2.382      4.818
REMARK  Name = 
REMARK  4 active torsions:
REMARK  status: ('A' for Active; 'I' for Inactive)
REMARK    1  A    between atoms: C_8  and  O_9
REMARK    2  A    between atoms: O_9  and  C_10
REMARK    3  A    between atoms: C_10  and  C_11
REMARK    4  A    between atoms: C_10  and  C_17
REMARK                            x       y       z     vdW  Elec       q    Type
REMARK                         _______ _______ _______ _____ _____    ______ ____
ROOT
ATOM      1  C   UNL     1       1.483   6.105  -5.270  0.00  0.00    +0.160 C 
ENDROOT
BRANCH   1   2
ATOM      2  C   UNL     1       0.067   6.250  -5.653  0.00  0.00    +0.009 A 
ATOM      3  C   UNL     1      -0.582   5.366  -6.496  0.00  0.00    -0.002 A 
ATOM      4  C   UNL     1      -1.949   5.460  -6.724  0.00  0.00    -0.000 A 
ATOM      5  C   UNL     1      -2.693   6.167  -5.804  0.00  0.00    -0.000 A 
ATOM      6  C   UNL     1      -2.036   7.083  -5.015  0.00  0.00    -0.000 A 
ATOM      7  C   UNL     1      -0.669   7.305  -5.150  0.00  0.00    -0.002 A 
ENDBRANCH   1   2
BRANCH   1   8
ATOM      8  C   UNL     1       2.284   6.171  -6.529  0.00  0.00    +0.009 A 
ATOM      9  C   UNL     1       2.854   5.049  -7.074  0.00  0.00    -0.002 A 
ATOM     10  C   UNL     1       3.014   5.053  -8.455  0.00  0.00    -0.000 A 
ATOM     11  C   UNL     1       2.837   6.208  -9.205  0.00  0.00    -0.000 A 
ATOM     12  C   UNL     1       2.747   7.387  -8.512  0.00  0.00    -0.000 A 
ATOM     13  C   UNL     1       2.344   7.387  -7.196  0.00  0.00    -0.002 A 
ENDBRANCH   1   8
BRANCH   1  14
ATOM     14  O   UNL     1       1.942   7.096  -4.410  0.00  0.00    -0.350 OA
BRANCH  14  19
ATOM     15  C   UNL     1       4.337   4.442  -0.967  0.00  0.00    +0.090 C 
ATOM     16  N   UNL     1       3.696   5.273  -1.757  0.00  0.00    -0.274 NA
ATOM     17  C   UNL     1       2.353   5.633  -1.047  0.00  0.00    +0.060 C 
ATOM     18  C   UNL     1       1.527   6.030  -2.422  0.00  0.00    +0.046 C 
ATOM     19  C   UNL     1       2.766   6.214  -3.491  0.00  0.00    +0.119 C 
ATOM     20  C   UNL     1       3.375   7.490  -2.641  0.00  0.00    +0.046 C 
ATOM     21  C   UNL     1       2.669   7.199  -0.684  0.00  0.00    +0.017 C 
ATOM     22  C   UNL     1       4.011   7.036  -0.246  0.00  0.00    +0.017 C 
ATOM     23  C   UNL     1       4.492   6.619  -1.771  0.00  0.00    +0.060 C 
ENDBRANCH  14  19
ENDBRANCH   1  14
TORSDOF 4
ENDMDL
MODEL 8
REMARK VINA RESULT:      -7.6      2.302      4.589
REMARK  Name = 
REMARK  4 active torsions:
REMARK  status: ('A' for Active; 'I' for Inactive)
REMARK    1  A    between atoms: C_8  and  O_9
REMARK    2  A    between atoms: O_9  and  C_10
REMARK    3  A    between atoms: C_10  and  C_11
REMARK    4  A    between atoms: C_10  and  C_17
REMARK                            x       y       z     vdW  Elec       q    Type
REMARK                         _______ _______ _______ _____ _____    ______ ____
ROOT
ATOM      1  C   UNL     1       1.872   6.558  -5.015  0.00  0.00    +0.160 C 
ENDROOT
BRANCH   1   2
ATOM      2  C   UNL     1       2.456   6.664  -6.363  0.00  0.00    +0.009 A 
ATOM      3  C   UNL     1       3.540   5.910  -6.779  0.00  0.00    -0.002 A 
ATOM      4  C   UNL     1       3.975   5.939  -8.098  0.00  0.00    -0.000 A 
ATOM      5  C   UNL     1       3.083   6.398  -9.044  0.00  0.00    -0.000 A 
ATOM      6  C   UNL     1       2.046   7.193  -8.616  0.00  0.00    -0.000 A 
ATOM      7  C   UNL     1       1.907   7.542  -7.276  0.00  0.00    -0.002 A 
ENDBRANCH   1   2
BRANCH   1   8
ATOM      8  C   UNL     1       0.441   6.171  -5.189  0.00  0.00    +0.009 A 
ATOM      9  C   UNL     1      -0.575   6.938  -4.680  0.00  0.00    -0.002 A 
ATOM     10  C   UNL     1      -1.782   6.890  -5.367  0.00  0.00    -0.000 A 
ATOM     11  C   UNL     1      -2.020   5.944  -6.356  0.00  0.00    -0.000 A 
ATOM     12  C   UNL     1      -1.124   4.912  -6.451  0.00  0.00    -0.000 A 
ATOM     13  C   UNL     1       0.160   5.064  -5.979  0.00  0.00    -0.002 A 
ENDBRANCH   1   8
BRANCH   1  14
ATOM     14  O   UNL     1       2.485   5.608  -4.204  0.00  0.00    -0.350 OA
BRANCH  14  19
ATOM     15  C   UNL     1       2.411   8.076   0.101  0.00  0.00    +0.090 C 
ATOM     16  N   UNL     1       2.599   7.386  -1.001  0.00  0.00    -0.274 NA
ATOM     17  C   UNL     1       3.763   8.079  -1.779  0.00  0.00    +0.060 C 
ATOM     18  C   UNL     1       3.327   7.528  -3.275  0.00  0.00    +0.046 C 
ATOM     19  C   UNL     1       2.294   6.310  -2.873  0.00  0.00    +0.119 C 
ATOM     20  C   UNL     1       3.503   5.463  -2.136  0.00  0.00    +0.046 C 
ATOM     21  C   UNL     1       4.912   6.925  -1.599  0.00  0.00    +0.017 C 
ATOM     22  C   UNL     1       4.676   6.621  -0.230  0.00  0.00    +0.017 C 
ATOM     23  C   UNL     1       3.190   5.997  -0.593  0.00  0.00    +0.060 C 
ENDBRANCH  14  19
ENDBRANCH   1  14
TORSDOF 4
ENDMDL
MODEL 9
REMARK VINA RESULT:      -7.5      1.303      4.081
REMARK  Name = 
REMARK  4 active torsions:
REMARK  status: ('A' for Active; 'I' for Inactive)
REMARK    1  A    between atoms: C_8  and  O_9
REMARK    2  A    between atoms: O_9  and  C_10
REMARK    3  A    between atoms: C_10  and  C_11
REMARK    4  A    between atoms: C_10  and  C_17
REMARK                            x       y       z     vdW  Elec       q    Type
REMARK                         _______ _______ _______ _____ _____    ______ ____
ROOT
ATOM      1  C   UNL     1       1.698   5.761  -5.562  0.00  0.00    +0.160 C 
ENDROOT
BRANCH   1   2
ATOM      2  C   UNL     1       1.818   5.496  -7.007  0.00  0.00    +0.009 A 
ATOM      3  C   UNL     1       2.410   4.356  -7.520  0.00  0.00    -0.002 A 
ATOM      4  C   UNL     1       2.382   4.078  -8.881  0.00  0.00    -0.000 A 
ATOM      5  C   UNL     1       1.427   4.726  -9.635  0.00  0.00    -0.000 A 
ATOM      6  C   UNL     1       0.892   5.889  -9.131  0.00  0.00    -0.000 A 
ATOM      7  C   UNL     1       1.312   6.409  -7.911  0.00  0.00    -0.002 A 
ENDBRANCH   1   2
BRANCH   1   8
ATOM      8  C   UNL     1       3.081   5.984  -5.044  0.00  0.00    +0.009 A 
ATOM      9  C   UNL     1       3.797   7.105  -5.376  0.00  0.00    -0.002 A 
ATOM     10  C   UNL     1       4.725   7.540  -4.437  0.00  0.00    -0.000 A 
ATOM     11  C   UNL     1       5.079   6.755  -3.346  0.00  0.00    -0.000 A 
ATOM     12  C   UNL     1       4.672   5.447  -3.369  0.00  0.00    -0.000 A 
ATOM     13  C   UNL     1       3.583   5.073  -4.125  0.00  0.00    -0.002 A 
ENDBRANCH   1   8
BRANCH   1  14
ATOM     14  O   UNL     1       0.931   6.878  -5.252  0.00  0.00    -0.350 OA
BRANCH  14  19
ATOM     15  C   UNL     1      -3.357   5.015  -3.588  0.00  0.00    +0.090 C 
ATOM     16  N   UNL     1      -2.223   5.607  -3.882  0.00  0.00    -0.274 NA
ATOM     17  C   UNL     1      -2.513   7.140  -3.952  0.00  0.00    +0.060 C 
ATOM     18  C   UNL     1      -1.253   7.513  -4.954  0.00  0.00    +0.046 C 
ATOM     19  C   UNL     1      -0.330   6.156  -4.817  0.00  0.00    +0.119 C 
ATOM     20  C   UNL     1      -0.063   6.440  -3.214  0.00  0.00    +0.046 C 
ATOM     21  C   UNL     1      -1.697   7.615  -2.612  0.00  0.00    +0.017 C 
ATOM     22  C   UNL     1      -2.108   6.565  -1.746  0.00  0.00    +0.017 C 
ATOM     23  C   UNL     1      -1.277   5.455  -2.646  0.00  0.00    +0.060 C 
ENDBRANCH  14  19
ENDBRANCH   1  14
TORSDOF 4
ENDMDL
