MODEL 1
REMARK VINA RESULT:      -2.7      0.000      0.000
REMARK  Name = 
REMARK  6 active torsions:
REMARK  status: ('A' for Active; 'I' for Inactive)
REMARK    1  A    between atoms: C_2  and  C_3
REMARK    2  A    between atoms: C_11  and  O_12
REMARK    3  A    between atoms: C_31  and  C_32
REMARK    4  A    between atoms: C_34  and  C_35
REMARK    5  A    between atoms: C_40  and  O_41
REMARK    6  A    between atoms: C_54  and  O_55
REMARK                            x       y       z     vdW  Elec       q    Type
REMARK                         _______ _______ _______ _____ _____    ______ ____
ROOT
ATOM      1  C   UNL     1       5.531   7.540  -3.262  0.00  0.00    +0.079 C 
ATOM      2  C   UNL     1       4.771   7.054  -4.601  0.00  0.00    +0.157 C 
ATOM      3  O   UNL     1       5.253   7.497  -5.634  0.00  0.00    -0.296 OA
ATOM      4  C   UNL     1       3.292   6.875  -4.395  0.00  0.00    +0.098 C 
ATOM      5  C   UNL     1       3.152   5.282  -4.786  0.00  0.00    +0.163 C 
ATOM      6  O   UNL     1       3.465   5.550  -6.241  0.00  0.00    -0.223 OA
ATOM      7  C   UNL     1       1.457   5.238  -4.938  0.00  0.00    +0.075 C 
ATOM      8  C   UNL     1       1.480   4.306  -6.239  0.00  0.00    +0.007 C 
ATOM      9  C   UNL     1       1.265   6.780  -5.626  0.00  0.00    +0.189 C 
ATOM     10  O   UNL     1      -0.248   6.823  -5.547  0.00  0.00    -0.447 OA
ATOM     11  C   UNL     1      -0.885   7.676  -4.803  0.00  0.00    +0.335 C 
ATOM     12  O   UNL     1      -1.200   8.861  -4.790  0.00  0.00    -0.248 OA
ATOM     13  C   UNL     1      -0.916   6.877  -3.409  0.00  0.00    +0.175 C 
ATOM     14  N   UNL     1      -2.455   7.181  -3.200  0.00  0.00    -0.265 N 
ATOM     15  C   UNL     1      -3.308   7.551  -4.274  0.00  0.00    +0.094 C 
ATOM     16  C   UNL     1      -3.283   6.411  -5.234  0.00  0.00    +0.022 C 
ATOM     17  C   UNL     1      -2.383   5.343  -4.884  0.00  0.00    +0.004 C 
ATOM     18  C   UNL     1      -2.977   6.249  -2.231  0.00  0.00    +0.289 C 
ATOM     19  O   UNL     1      -4.170   5.824  -2.188  0.00  0.00    -0.267 OA
ATOM     20  C   UNL     1      -1.929   6.001  -1.210  0.00  0.00    +0.279 C 
ATOM     21  O   UNL     1      -2.119   4.940  -0.529  0.00  0.00    -0.281 OA
ATOM     22  C   UNL     1      -1.313   7.244  -0.786  0.00  0.00    +0.279 C 
ATOM     23  C   UNL     1      -1.799   7.064   0.767  0.00  0.00    +0.065 C 
ATOM     24  C   UNL     1      -1.998   8.659   1.042  0.00  0.00    +0.038 C 
ATOM     25  C   UNL     1      -0.429   8.794   1.445  0.00  0.00    +0.145 C 
ATOM     26  C   UNL     1       0.072   8.833  -0.194  0.00  0.00    +0.172 C 
ATOM     27  C   UNL     1       1.754   8.964   0.129  0.00  0.00    +0.145 C 
ATOM     28  C   UNL     1       2.101   7.383   0.415  0.00  0.00    +0.032 C 
ATOM     29  C   UNL     1       3.689   7.813   0.505  0.00  0.00    +0.007 C 
ATOM     30  C   UNL     1       4.141   6.413   1.199  0.00  0.00    +0.000 C 
ATOM     31  C   UNL     1       3.936   7.359  -1.027  0.00  0.00    +0.022 C 
ATOM     32  C   UNL     1       4.889   6.297  -1.182  0.00  0.00    -0.048 C 
ATOM     33  C   UNL     1       4.749   4.862  -0.727  0.00  0.00    +0.026 C 
ATOM     34  C   UNL     1      -3.398   6.881   0.494  0.00  0.00    +0.006 C 
ATOM     35  O   UNL     1      -1.904   8.426  -1.239  0.00  0.00    -0.187 OA
ATOM     36  O   UNL     1       0.001   7.350  -0.442  0.00  0.00    -0.324 OA
ATOM     37  C   UNL     1      -1.301   5.365  -3.956  0.00  0.00    +0.031 C 
ATOM     38  C   UNL     1       5.176   6.175  -2.495  0.00  0.00    -0.028 C 
ENDROOT
BRANCH   9  39
ATOM     39  C   UNL     1       1.211   6.319  -7.177  0.00  0.00    -0.009 C 
ATOM     40  C   UNL     1       0.077   6.443  -7.827  0.00  0.00    -0.031 C 
ATOM     41  C   UNL     1       2.143   7.023  -8.130  0.00  0.00    +0.030 C 
BRANCH  40  42
ATOM     42  C   UNL     1      -0.177   5.466  -9.063  0.00  0.00    +0.024 C 
ATOM     43  C   UNL     1       0.003   6.722 -10.093  0.00  0.00    +0.035 C 
ATOM     44  C   UNL     1      -0.491   6.095 -11.530  0.00  0.00    +0.131 C 
ATOM     45  C   UNL     1       0.196   4.567 -11.273  0.00  0.00    +0.107 C 
ATOM     46 CL   UNL     1       0.687   4.279 -13.036  0.00  0.00    -0.112 Cl
ATOM     47  C   UNL     1       1.616   4.986 -10.721  0.00  0.00    +0.019 C 
ATOM     48  C   UNL     1       1.397   5.041  -9.209  0.00  0.00    +0.006 C 
BRANCH  44  49
ATOM     49  O   UNL     1       0.731   6.662 -12.235  0.00  0.00    -0.352 OA
ATOM     50  C   UNL     1       0.253   7.755 -12.968  0.00  0.00    +0.174 C 
ENDBRANCH  44  49
ENDBRANCH  40  42
ENDBRANCH   9  39
BRANCH   1  52
ATOM     51  C   UNL     1       7.426   7.603  -4.119  0.00  0.00    +0.001 C 
ATOM     52  C   UNL     1       6.976   6.939  -3.756  0.00  0.00    +0.012 C 
ENDBRANCH   1  52
BRANCH  27  53
ATOM     53  O   UNL     1       1.667   9.336   1.589  0.00  0.00    -0.351 OA
ATOM     54  C   UNL     1       2.592  10.237   1.967  0.00  0.00    +0.174 C 
ENDBRANCH  27  53
BRANCH  25  55
ATOM     55  O   UNL     1      -0.535  10.302   1.465  0.00  0.00    -0.351 OA
ATOM     56  C   UNL     1      -1.566  10.489   2.371  0.00  0.00    +0.174 C 
ENDBRANCH  25  55
TORSDOF 6
ENDMDL
MODEL 2
REMARK VINA RESULT:      -1.3      4.105     10.155
REMARK  Name = 
REMARK  6 active torsions:
REMARK  status: ('A' for Active; 'I' for Inactive)
REMARK    1  A    between atoms: C_2  and  C_3
REMARK    2  A    between atoms: C_11  and  O_12
REMARK    3  A    between atoms: C_31  and  C_32
REMARK    4  A    between atoms: C_34  and  C_35
REMARK    5  A    between atoms: C_40  and  O_41
REMARK    6  A    between atoms: C_54  and  O_55
REMARK                            x       y       z     vdW  Elec       q    Type
REMARK                         _______ _______ _______ _____ _____    ______ ____
ROOT
ATOM      1  C   UNL     1      -2.159   9.830   2.268  0.00  0.00    +0.079 C 
ATOM      2  C   UNL     1      -0.665  10.225   2.735  0.00  0.00    +0.157 C 
ATOM      3  O   UNL     1      -0.557  11.377   3.131  0.00  0.00    -0.296 OA
ATOM      4  C   UNL     1       0.398   9.529   1.929  0.00  0.00    +0.098 C 
ATOM      5  C   UNL     1       1.173   8.722   3.136  0.00  0.00    +0.163 C 
ATOM      6  O   UNL     1       1.703  10.006   3.734  0.00  0.00    -0.223 OA
ATOM      7  C   UNL     1       2.571   8.302   2.261  0.00  0.00    +0.075 C 
ATOM      8  C   UNL     1       3.567   8.610   3.476  0.00  0.00    +0.007 C 
ATOM      9  C   UNL     1       2.690   9.732   1.351  0.00  0.00    +0.189 C 
ATOM     10  O   UNL     1       3.792   9.261   0.422  0.00  0.00    -0.447 OA
ATOM     11  C   UNL     1       3.611   9.110  -0.856  0.00  0.00    +0.335 C 
ATOM     12  O   UNL     1       3.516   9.781  -1.877  0.00  0.00    -0.248 OA
ATOM     13  C   UNL     1       3.047   7.606  -0.892  0.00  0.00    +0.175 C 
ATOM     14  N   UNL     1       4.020   7.206  -2.075  0.00  0.00    -0.265 N 
ATOM     15  C   UNL     1       5.193   7.947  -2.376  0.00  0.00    +0.094 C 
ATOM     16  C   UNL     1       6.047   7.881  -1.155  0.00  0.00    +0.022 C 
ATOM     17  C   UNL     1       5.451   7.205  -0.034  0.00  0.00    +0.004 C 
ATOM     18  C   UNL     1       4.114   5.768  -2.122  0.00  0.00    +0.289 C 
ATOM     19  O   UNL     1       5.121   5.109  -2.522  0.00  0.00    -0.267 OA
ATOM     20  C   UNL     1       2.788   5.200  -1.773  0.00  0.00    +0.279 C 
ATOM     21  O   UNL     1       2.832   3.976  -1.419  0.00  0.00    -0.281 OA
ATOM     22  C   UNL     1       1.726   5.896  -2.475  0.00  0.00    +0.279 C 
ATOM     23  C   UNL     1       1.246   4.551  -3.276  0.00  0.00    +0.065 C 
ATOM     24  C   UNL     1       0.797   5.341  -4.630  0.00  0.00    +0.038 C 
ATOM     25  C   UNL     1      -0.676   5.608  -3.996  0.00  0.00    +0.145 C 
ATOM     26  C   UNL     1      -0.119   6.926  -3.052  0.00  0.00    +0.172 C 
ATOM     27  C   UNL     1      -1.630   7.280  -2.316  0.00  0.00    +0.145 C 
ATOM     28  C   UNL     1      -1.624   6.150  -1.121  0.00  0.00    +0.032 C 
ATOM     29  C   UNL     1      -3.011   6.835  -0.554  0.00  0.00    +0.007 C 
ATOM     30  C   UNL     1      -3.372   5.569   0.402  0.00  0.00    +0.000 C 
ATOM     31  C   UNL     1      -2.185   7.681   0.547  0.00  0.00    +0.022 C 
ATOM     32  C   UNL     1      -2.530   7.377   1.907  0.00  0.00    -0.048 C 
ATOM     33  C   UNL     1      -2.289   6.082   2.650  0.00  0.00    +0.026 C 
ATOM     34  C   UNL     1       2.679   4.153  -3.948  0.00  0.00    +0.006 C 
ATOM     35  O   UNL     1       2.114   6.810  -3.458  0.00  0.00    -0.187 OA
ATOM     36  O   UNL     1       0.491   6.111  -1.942  0.00  0.00    -0.324 OA
ATOM     37  C   UNL     1       4.077   6.889   0.183  0.00  0.00    +0.031 C 
ATOM     38  C   UNL     1      -1.954   8.299   2.707  0.00  0.00    -0.028 C 
ENDROOT
BRANCH   9  39
ATOM     39  C   UNL     1       3.760  10.500   2.294  0.00  0.00    -0.009 C 
ATOM     40  C   UNL     1       4.834  11.008   1.735  0.00  0.00    -0.031 C 
ATOM     41  C   UNL     1       3.260  11.703   3.053  0.00  0.00    +0.030 C 
BRANCH  40  42
ATOM     42  C   UNL     1       6.131  11.180   2.649  0.00  0.00    +0.024 C 
ATOM     43  C   UNL     1       6.950  11.787   1.372  0.00  0.00    +0.035 C 
ATOM     44  C   UNL     1       8.501  11.829   1.914  0.00  0.00    +0.131 C 
ATOM     45  C   UNL     1       8.098  12.298   3.493  0.00  0.00    +0.107 C 
ATOM     46 CL   UNL     1       9.573  13.391   3.749  0.00  0.00    -0.112 Cl
ATOM     47  C   UNL     1       7.042  13.434   3.187  0.00  0.00    +0.019 C 
ATOM     48  C   UNL     1       5.715  12.675   3.171  0.00  0.00    +0.006 C 
BRANCH  44  49
ATOM     49  O   UNL     1       8.677  13.250   1.404  0.00  0.00    -0.352 OA
ATOM     50  C   UNL     1       9.537  13.138   0.304  0.00  0.00    +0.174 C 
ENDBRANCH  44  49
ENDBRANCH  40  42
ENDBRANCH   9  39
BRANCH   1  52
ATOM     51  C   UNL     1      -3.635   9.892   3.734  0.00  0.00    +0.001 C 
ATOM     52  C   UNL     1      -2.812  10.207   3.725  0.00  0.00    +0.012 C 
ENDBRANCH   1  52
BRANCH  27  53
ATOM     53  O   UNL     1      -2.514   6.477  -3.238  0.00  0.00    -0.351 OA
ATOM     54  C   UNL     1      -3.828   6.697  -3.046  0.00  0.00    +0.174 C 
ENDBRANCH  27  53
BRANCH  25  55
ATOM     55  O   UNL     1      -1.023   6.546  -5.129  0.00  0.00    -0.351 OA
ATOM     56  C   UNL     1      -0.940   5.697  -6.219  0.00  0.00    +0.174 C 
ENDBRANCH  25  55
TORSDOF 6
ENDMDL
