MODEL 1
REMARK VINA RESULT:      -8.6      0.000      0.000
REMARK  Name = 
REMARK  12 active torsions:
REMARK  status: ('A' for Active; 'I' for Inactive)
REMARK    1  A    between atoms: C_2  and  N_3
REMARK    2  A    between atoms: C_4  and  C_6
REMARK    3  A    between atoms: C_6  and  C_7
REMARK    4  A    between atoms: C_7  and  C_8
REMARK    5  A    between atoms: C_8  and  C_9
REMARK    6  A    between atoms: C_10  and  C_11
REMARK    7  A    between atoms: C_11  and  C_12
REMARK    8  A    between atoms: C_13  and  C_14
REMARK    9  A    between atoms: C_15  and  C_16
REMARK   10  A    between atoms: C_16  and  C_18
REMARK   11  A    between atoms: C_18  and  C_19
REMARK   12  A    between atoms: C_19  and  C_20
REMARK                            x       y       z     vdW  Elec       q    Type
REMARK                         _______ _______ _______ _____ _____    ______ ____
ROOT
ATOM      1  C   UNL     1       2.270   6.806  -4.144  0.00  0.00    +0.041 C 
ATOM      2  C   UNL     1       3.355   7.122  -2.852  0.00  0.00    +0.155 C 
ATOM      3  O   UNL     1       2.322   7.089  -1.737  0.00  0.00    -0.223 OA
ATOM      4  C   UNL     1       3.669   5.504  -2.658  0.00  0.00    +0.066 C 
ATOM      5  C   UNL     1       4.597   5.990  -3.929  0.00  0.00    +0.159 C 
ATOM      6  O   UNL     1       5.126   4.592  -4.184  0.00  0.00    -0.223 OA
ATOM      7  C   UNL     1       3.260   5.712  -4.934  0.00  0.00    +0.055 C 
ENDROOT
BRANCH   7   8
ATOM      8  C   UNL     1       3.752   6.724  -6.050  0.00  0.00    -0.026 C 
ATOM      9  C   UNL     1       3.518   6.595  -7.274  0.00  0.00    +0.002 C 
BRANCH   9  10
ATOM     10  C   UNL     1       2.046   6.880  -7.923  0.00  0.00    +0.174 C 
ATOM     11  O   UNL     1       2.223   8.396  -7.873  0.00  0.00    -0.218 OA
BRANCH  10  12
ATOM     12  C   UNL     1       2.689   6.742  -9.451  0.00  0.00    +0.042 C 
BRANCH  12  13
ATOM     13  C   UNL     1       3.903   5.976  -9.465  0.00  0.00    +0.029 C 
BRANCH  13  14
ATOM     14  C   UNL     1       5.124   6.331 -10.083  0.00  0.00    -0.022 A 
ATOM     15  C   UNL     1       6.288   5.774  -9.584  0.00  0.00    -0.004 A 
ATOM     16  C   UNL     1       7.441   5.841 -10.343  0.00  0.00    -0.000 A 
ATOM     17  C   UNL     1       7.569   6.924 -11.180  0.00  0.00    -0.000 A 
ATOM     18  C   UNL     1       6.510   7.794 -11.393  0.00  0.00    -0.000 A 
ATOM     19  C   UNL     1       5.286   7.454 -10.870  0.00  0.00    -0.004 A 
ENDBRANCH  13  14
ENDBRANCH  12  13
ENDBRANCH  10  12
ENDBRANCH   9  10
ENDBRANCH   7   8
BRANCH   1  20
ATOM     20  C   UNL     1       1.422   5.626  -3.431  0.00  0.00    +0.029 C 
BRANCH  20  22
ATOM     21  C   UNL     1      -0.287   5.288  -5.240  0.00  0.00    -0.031 C 
ATOM     22  C   UNL     1       0.790   4.990  -4.561  0.00  0.00    -0.031 C 
BRANCH  21  23
ATOM     23  C   UNL     1      -0.926   6.450  -4.814  0.00  0.00    +0.026 C 
BRANCH  23  24
ATOM     24  C   UNL     1      -2.342   6.750  -4.945  0.00  0.00    +0.014 C 
BRANCH  24  25
ATOM     25  C   UNL     1      -2.903   5.461  -4.309  0.00  0.00    +0.087 C 
BRANCH  25  27
ATOM     26  N   UNL     1      -2.276   5.038  -2.004  0.00  0.00    -0.205 NA
ATOM     27  C   UNL     1      -3.170   5.802  -2.871  0.00  0.00    +0.241 C 
ATOM     28  O   UNL     1      -3.963   6.650  -2.409  0.00  0.00    -0.273 OA
BRANCH  26  30
ATOM     29  C   UNL     1      -0.998   5.859  -0.889  0.00  0.00    +0.025 C 
ATOM     30  C   UNL     1      -1.859   5.923  -0.920  0.00  0.00    +0.115 C 
ENDBRANCH  26  30
ENDBRANCH  25  27
ENDBRANCH  24  25
ENDBRANCH  23  24
ENDBRANCH  21  23
ENDBRANCH  20  22
ENDBRANCH   1  20
TORSDOF 12
ENDMDL
MODEL 2
REMARK VINA RESULT:      -8.3      2.806      7.188
REMARK  Name = 
REMARK  12 active torsions:
REMARK  status: ('A' for Active; 'I' for Inactive)
REMARK    1  A    between atoms: C_2  and  N_3
REMARK    2  A    between atoms: C_4  and  C_6
REMARK    3  A    between atoms: C_6  and  C_7
REMARK    4  A    between atoms: C_7  and  C_8
REMARK    5  A    between atoms: C_8  and  C_9
REMARK    6  A    between atoms: C_10  and  C_11
REMARK    7  A    between atoms: C_11  and  C_12
REMARK    8  A    between atoms: C_13  and  C_14
REMARK    9  A    between atoms: C_15  and  C_16
REMARK   10  A    between atoms: C_16  and  C_18
REMARK   11  A    between atoms: C_18  and  C_19
REMARK   12  A    between atoms: C_19  and  C_20
REMARK                            x       y       z     vdW  Elec       q    Type
REMARK                         _______ _______ _______ _____ _____    ______ ____
ROOT
ATOM      1  C   UNL     1       4.661   6.834 -10.553  0.00  0.00    +0.041 C 
ATOM      2  C   UNL     1       5.888   7.339 -11.641  0.00  0.00    +0.155 C 
ATOM      3  O   UNL     1       6.963   7.595 -10.597  0.00  0.00    -0.223 OA
ATOM      4  C   UNL     1       6.411   5.778 -11.851  0.00  0.00    +0.066 C 
ATOM      5  C   UNL     1       5.090   5.942 -12.821  0.00  0.00    +0.159 C 
ATOM      6  O   UNL     1       5.133   4.492 -13.264  0.00  0.00    -0.223 OA
ATOM      7  C   UNL     1       4.131   5.546 -11.480  0.00  0.00    +0.055 C 
ENDROOT
BRANCH   7   8
ATOM      8  C   UNL     1       2.846   6.281 -12.047  0.00  0.00    -0.026 C 
ATOM      9  C   UNL     1       1.691   6.145 -11.581  0.00  0.00    +0.002 C 
BRANCH   9  10
ATOM     10  C   UNL     1       1.227   6.818 -10.167  0.00  0.00    +0.174 C 
ATOM     11  O   UNL     1      -0.036   7.428 -10.773  0.00  0.00    -0.218 OA
BRANCH  10  12
ATOM     12  C   UNL     1       0.472   5.400  -9.735  0.00  0.00    +0.042 C 
BRANCH  12  13
ATOM     13  C   UNL     1       0.615   5.110  -8.337  0.00  0.00    +0.029 C 
BRANCH  13  14
ATOM     14  C   UNL     1      -0.150   5.648  -7.275  0.00  0.00    -0.022 A 
ATOM     15  C   UNL     1       0.529   6.199  -6.203  0.00  0.00    -0.004 A 
ATOM     16  C   UNL     1      -0.160   7.004  -5.317  0.00  0.00    -0.000 A 
ATOM     17  C   UNL     1      -1.496   6.731  -5.144  0.00  0.00    -0.000 A 
ATOM     18  C   UNL     1      -2.154   5.824  -5.961  0.00  0.00    -0.000 A 
ATOM     19  C   UNL     1      -1.473   5.329  -7.047  0.00  0.00    -0.004 A 
ENDBRANCH  13  14
ENDBRANCH  12  13
ENDBRANCH  10  12
ENDBRANCH   9  10
ENDBRANCH   7   8
BRANCH   1  20
ATOM     20  C   UNL     1       5.577   5.876  -9.624  0.00  0.00    +0.029 C 
BRANCH  20  22
ATOM     21  C   UNL     1       4.089   4.793  -7.915  0.00  0.00    -0.031 C 
ATOM     22  C   UNL     1       4.603   4.946  -9.107  0.00  0.00    -0.031 C 
BRANCH  21  23
ATOM     23  C   UNL     1       4.542   5.719  -6.977  0.00  0.00    +0.026 C 
BRANCH  23  24
ATOM     24  C   UNL     1       4.349   5.650  -5.539  0.00  0.00    +0.014 C 
BRANCH  24  25
ATOM     25  C   UNL     1       3.937   7.117  -5.297  0.00  0.00    +0.087 C 
BRANCH  25  27
ATOM     26  N   UNL     1       3.176   6.128  -3.217  0.00  0.00    -0.205 NA
ATOM     27  C   UNL     1       3.861   7.276  -3.806  0.00  0.00    +0.241 C 
ATOM     28  O   UNL     1       4.348   8.182  -3.097  0.00  0.00    -0.273 OA
BRANCH  26  30
ATOM     29  C   UNL     1       3.851   4.937  -1.925  0.00  0.00    +0.025 C 
ATOM     30  C   UNL     1       3.867   5.799  -1.974  0.00  0.00    +0.115 C 
ENDBRANCH  26  30
ENDBRANCH  25  27
ENDBRANCH  24  25
ENDBRANCH  23  24
ENDBRANCH  21  23
ENDBRANCH  20  22
ENDBRANCH   1  20
TORSDOF 12
ENDMDL
MODEL 3
REMARK VINA RESULT:      -8.1      3.336      6.810
REMARK  Name = 
REMARK  12 active torsions:
REMARK  status: ('A' for Active; 'I' for Inactive)
REMARK    1  A    between atoms: C_2  and  N_3
REMARK    2  A    between atoms: C_4  and  C_6
REMARK    3  A    between atoms: C_6  and  C_7
REMARK    4  A    between atoms: C_7  and  C_8
REMARK    5  A    between atoms: C_8  and  C_9
REMARK    6  A    between atoms: C_10  and  C_11
REMARK    7  A    between atoms: C_11  and  C_12
REMARK    8  A    between atoms: C_13  and  C_14
REMARK    9  A    between atoms: C_15  and  C_16
REMARK   10  A    between atoms: C_16  and  C_18
REMARK   11  A    between atoms: C_18  and  C_19
REMARK   12  A    between atoms: C_19  and  C_20
REMARK                            x       y       z     vdW  Elec       q    Type
REMARK                         _______ _______ _______ _____ _____    ______ ____
ROOT
ATOM      1  C   UNL     1      -0.466   7.037  -3.368  0.00  0.00    +0.041 C 
ATOM      2  C   UNL     1      -2.032   7.736  -3.433  0.00  0.00    +0.155 C 
ATOM      3  O   UNL     1      -1.851   8.465  -4.755  0.00  0.00    -0.223 OA
ATOM      4  C   UNL     1      -2.646   6.404  -4.211  0.00  0.00    +0.066 C 
ATOM      5  C   UNL     1      -2.583   6.001  -2.614  0.00  0.00    +0.159 C 
ATOM      6  O   UNL     1      -3.077   4.590  -2.866  0.00  0.00    -0.223 OA
ATOM      7  C   UNL     1      -0.975   5.526  -2.859  0.00  0.00    +0.055 C 
ENDROOT
BRANCH   7   8
ATOM      8  C   UNL     1      -0.571   5.731  -1.340  0.00  0.00    -0.026 C 
ATOM      9  C   UNL     1       0.548   5.433  -0.860  0.00  0.00    +0.002 C 
BRANCH   9  10
ATOM     10  C   UNL     1       1.891   6.319  -1.146  0.00  0.00    +0.174 C 
ATOM     11  O   UNL     1       2.203   6.482   0.341  0.00  0.00    -0.218 OA
BRANCH  10  12
ATOM     12  C   UNL     1       2.784   4.923  -1.296  0.00  0.00    +0.042 C 
BRANCH  12  13
ATOM     13  C   UNL     1       3.981   5.121  -2.062  0.00  0.00    +0.029 C 
BRANCH  13  14
ATOM     14  C   UNL     1       4.071   5.605  -3.388  0.00  0.00    -0.022 A 
ATOM     15  C   UNL     1       4.777   4.850  -4.306  0.00  0.00    -0.004 A 
ATOM     16  C   UNL     1       4.623   5.117  -5.653  0.00  0.00    -0.000 A 
ATOM     17  C   UNL     1       4.331   6.416  -5.996  0.00  0.00    -0.000 A 
ATOM     18  C   UNL     1       4.016   7.359  -5.030  0.00  0.00    -0.000 A 
ATOM     19  C   UNL     1       3.849   6.922  -3.738  0.00  0.00    -0.004 A 
ENDBRANCH  13  14
ENDBRANCH  12  13
ENDBRANCH  10  12
ENDBRANCH   9  10
ENDBRANCH   7   8
BRANCH   1  20
ATOM     20  C   UNL     1      -0.377   6.561  -4.913  0.00  0.00    +0.029 C 
BRANCH  20  22
ATOM     21  C   UNL     1       1.113   4.724  -5.757  0.00  0.00    -0.031 C 
ATOM     22  C   UNL     1       0.585   5.489  -4.837  0.00  0.00    -0.031 C 
BRANCH  21  23
ATOM     23  C   UNL     1       0.691   5.016  -7.052  0.00  0.00    +0.026 C 
BRANCH  23  24
ATOM     24  C   UNL     1       1.359   5.897  -7.996  0.00  0.00    +0.014 C 
BRANCH  24  25
ATOM     25  C   UNL     1       1.615   4.870  -9.119  0.00  0.00    +0.087 C 
BRANCH  25  27
ATOM     26  N   UNL     1       0.156   6.486 -10.188  0.00  0.00    -0.205 NA
ATOM     27  C   UNL     1       0.505   5.070 -10.111  0.00  0.00    +0.241 C 
ATOM     28  O   UNL     1      -0.036   4.220 -10.850  0.00  0.00    -0.273 OA
BRANCH  26  30
ATOM     29  C   UNL     1      -0.541   7.542 -11.582  0.00  0.00    +0.025 C 
ATOM     30  C   UNL     1      -0.112   6.793 -11.589  0.00  0.00    +0.115 C 
ENDBRANCH  26  30
ENDBRANCH  25  27
ENDBRANCH  24  25
ENDBRANCH  23  24
ENDBRANCH  21  23
ENDBRANCH  20  22
ENDBRANCH   1  20
TORSDOF 12
ENDMDL
MODEL 4
REMARK VINA RESULT:      -8.1      2.734      6.823
REMARK  Name = 
REMARK  12 active torsions:
REMARK  status: ('A' for Active; 'I' for Inactive)
REMARK    1  A    between atoms: C_2  and  N_3
REMARK    2  A    between atoms: C_4  and  C_6
REMARK    3  A    between atoms: C_6  and  C_7
REMARK    4  A    between atoms: C_7  and  C_8
REMARK    5  A    between atoms: C_8  and  C_9
REMARK    6  A    between atoms: C_10  and  C_11
REMARK    7  A    between atoms: C_11  and  C_12
REMARK    8  A    between atoms: C_13  and  C_14
REMARK    9  A    between atoms: C_15  and  C_16
REMARK   10  A    between atoms: C_16  and  C_18
REMARK   11  A    between atoms: C_18  and  C_19
REMARK   12  A    between atoms: C_19  and  C_20
REMARK                            x       y       z     vdW  Elec       q    Type
REMARK                         _______ _______ _______ _____ _____    ______ ____
ROOT
ATOM      1  C   UNL     1      -0.511   7.044  -3.243  0.00  0.00    +0.041 C 
ATOM      2  C   UNL     1      -2.058   7.738  -2.981  0.00  0.00    +0.155 C 
ATOM      3  O   UNL     1      -1.997   8.751  -4.113  0.00  0.00    -0.223 OA
ATOM      4  C   UNL     1      -2.781   6.619  -3.972  0.00  0.00    +0.066 C 
ATOM      5  C   UNL     1      -2.563   5.862  -2.525  0.00  0.00    +0.159 C 
ATOM      6  O   UNL     1      -3.113   4.545  -3.039  0.00  0.00    -0.223 OA
ATOM      7  C   UNL     1      -1.000   5.457  -3.040  0.00  0.00    +0.055 C 
ENDROOT
BRANCH   7   8
ATOM      8  C   UNL     1      -0.437   5.308  -1.566  0.00  0.00    -0.026 C 
ATOM      9  C   UNL     1       0.751   5.020  -1.289  0.00  0.00    +0.002 C 
BRANCH   9  10
ATOM     10  C   UNL     1       1.976   6.089  -1.453  0.00  0.00    +0.174 C 
ATOM     11  O   UNL     1       1.870   6.563  -0.005  0.00  0.00    -0.218 OA
BRANCH  10  12
ATOM     12  C   UNL     1       3.073   4.890  -1.098  0.00  0.00    +0.042 C 
BRANCH  12  13
ATOM     13  C   UNL     1       4.091   4.767  -2.102  0.00  0.00    +0.029 C 
BRANCH  13  14
ATOM     14  C   UNL     1       4.184   5.495  -3.311  0.00  0.00    -0.022 A 
ATOM     15  C   UNL     1       4.218   4.781  -4.496  0.00  0.00    -0.004 A 
ATOM     16  C   UNL     1       3.990   5.446  -5.685  0.00  0.00    -0.000 A 
ATOM     17  C   UNL     1       4.361   6.768  -5.735  0.00  0.00    -0.000 A 
ATOM     18  C   UNL     1       4.760   7.445  -4.593  0.00  0.00    -0.000 A 
ATOM     19  C   UNL     1       4.621   6.802  -3.386  0.00  0.00    -0.004 A 
ENDBRANCH  13  14
ENDBRANCH  12  13
ENDBRANCH  10  12
ENDBRANCH   9  10
ENDBRANCH   7   8
BRANCH   1  20
ATOM     20  C   UNL     1      -0.593   6.935  -4.856  0.00  0.00    +0.029 C 
BRANCH  20  22
ATOM     21  C   UNL     1       0.451   5.080  -6.189  0.00  0.00    -0.031 C 
ATOM     22  C   UNL     1       0.274   5.812  -5.121  0.00  0.00    -0.031 C 
BRANCH  21  23
ATOM     23  C   UNL     1      -0.317   5.473  -7.284  0.00  0.00    +0.026 C 
BRANCH  23  24
ATOM     24  C   UNL     1       0.080   5.407  -8.680  0.00  0.00    +0.014 C 
BRANCH  24  25
ATOM     25  C   UNL     1       1.473   6.058  -8.549  0.00  0.00    +0.087 C 
BRANCH  25  27
ATOM     26  N   UNL     1       3.498   5.693  -9.833  0.00  0.00    -0.205 NA
ATOM     27  C   UNL     1       2.447   5.036  -9.061  0.00  0.00    +0.241 C 
ATOM     28  O   UNL     1       2.467   3.806  -8.842  0.00  0.00    -0.273 OA
BRANCH  26  30
ATOM     29  C   UNL     1       5.287   5.646  -9.247  0.00  0.00    +0.025 C 
ATOM     30  C   UNL     1       4.755   5.022  -9.519  0.00  0.00    +0.115 C 
ENDBRANCH  26  30
ENDBRANCH  25  27
ENDBRANCH  24  25
ENDBRANCH  23  24
ENDBRANCH  21  23
ENDBRANCH  20  22
ENDBRANCH   1  20
TORSDOF 12
ENDMDL
MODEL 5
REMARK VINA RESULT:      -8.0      3.239      6.113
REMARK  Name = 
REMARK  12 active torsions:
REMARK  status: ('A' for Active; 'I' for Inactive)
REMARK    1  A    between atoms: C_2  and  N_3
REMARK    2  A    between atoms: C_4  and  C_6
REMARK    3  A    between atoms: C_6  and  C_7
REMARK    4  A    between atoms: C_7  and  C_8
REMARK    5  A    between atoms: C_8  and  C_9
REMARK    6  A    between atoms: C_10  and  C_11
REMARK    7  A    between atoms: C_11  and  C_12
REMARK    8  A    between atoms: C_13  and  C_14
REMARK    9  A    between atoms: C_15  and  C_16
REMARK   10  A    between atoms: C_16  and  C_18
REMARK   11  A    between atoms: C_18  and  C_19
REMARK   12  A    between atoms: C_19  and  C_20
REMARK                            x       y       z     vdW  Elec       q    Type
REMARK                         _______ _______ _______ _____ _____    ______ ____
ROOT
ATOM      1  C   UNL     1      -0.528   6.909  -5.376  0.00  0.00    +0.041 C 
ATOM      2  C   UNL     1      -1.653   7.617  -4.290  0.00  0.00    +0.155 C 
ATOM      3  O   UNL     1      -2.776   7.813  -5.296  0.00  0.00    -0.223 OA
ATOM      4  C   UNL     1      -2.248   6.128  -3.861  0.00  0.00    +0.066 C 
ATOM      5  C   UNL     1      -0.860   6.322  -2.994  0.00  0.00    +0.159 C 
ATOM      6  O   UNL     1      -0.957   4.942  -2.375  0.00  0.00    -0.223 OA
ATOM      7  C   UNL     1      -0.012   5.709  -4.328  0.00  0.00    +0.055 C 
ENDROOT
BRANCH   7   8
ATOM      8  C   UNL     1       1.345   6.425  -3.929  0.00  0.00    -0.026 C 
ATOM      9  C   UNL     1       2.441   6.231  -4.505  0.00  0.00    +0.002 C 
BRANCH   9  10
ATOM     10  C   UNL     1       2.773   6.832  -5.988  0.00  0.00    +0.174 C 
ATOM     11  O   UNL     1       4.021   7.568  -5.504  0.00  0.00    -0.218 OA
BRANCH  10  12
ATOM     12  C   UNL     1       3.603   5.442  -6.369  0.00  0.00    +0.042 C 
BRANCH  12  13
ATOM     13  C   UNL     1       3.668   5.217  -7.785  0.00  0.00    +0.029 C 
BRANCH  13  14
ATOM     14  C   UNL     1       4.640   5.719  -8.681  0.00  0.00    -0.022 A 
ATOM     15  C   UNL     1       4.199   6.311  -9.851  0.00  0.00    -0.004 A 
ATOM     16  C   UNL     1       5.079   7.082 -10.584  0.00  0.00    -0.000 A 
ATOM     17  C   UNL     1       6.408   6.739 -10.515  0.00  0.00    -0.000 A 
ATOM     18  C   UNL     1       6.858   5.795  -9.605  0.00  0.00    -0.000 A 
ATOM     19  C   UNL     1       5.965   5.331  -8.669  0.00  0.00    -0.004 A 
ENDBRANCH  13  14
ENDBRANCH  12  13
ENDBRANCH  10  12
ENDBRANCH   9  10
ENDBRANCH   7   8
BRANCH   1  20
ATOM     20  C   UNL     1      -1.553   5.906  -6.126  0.00  0.00    +0.029 C 
BRANCH  20  22
ATOM     21  C   UNL     1       0.028   4.965  -7.836  0.00  0.00    -0.031 C 
ATOM     22  C   UNL     1      -0.651   4.949  -6.718  0.00  0.00    -0.031 C 
BRANCH  21  23
ATOM     23  C   UNL     1      -0.124   6.134  -8.578  0.00  0.00    +0.026 C 
BRANCH  23  24
ATOM     24  C   UNL     1       0.716   6.567  -9.682  0.00  0.00    +0.014 C 
BRANCH  24  25
ATOM     25  C   UNL     1       0.468   5.376 -10.631  0.00  0.00    +0.087 C 
BRANCH  25  27
ATOM     26  N   UNL     1       1.464   5.044 -12.818  0.00  0.00    -0.205 NA
ATOM     27  C   UNL     1       0.617   5.927 -12.020  0.00  0.00    +0.241 C 
ATOM     28  O   UNL     1       0.073   6.937 -12.516  0.00  0.00    -0.273 OA
BRANCH  26  30
ATOM     29  C   UNL     1       0.651   4.167 -14.273  0.00  0.00    +0.025 C 
ATOM     30  C   UNL     1       0.893   4.989 -14.161  0.00  0.00    +0.115 C 
ENDBRANCH  26  30
ENDBRANCH  25  27
ENDBRANCH  24  25
ENDBRANCH  23  24
ENDBRANCH  21  23
ENDBRANCH  20  22
ENDBRANCH   1  20
TORSDOF 12
ENDMDL
MODEL 6
REMARK VINA RESULT:      -8.0      2.144      5.105
REMARK  Name = 
REMARK  12 active torsions:
REMARK  status: ('A' for Active; 'I' for Inactive)
REMARK    1  A    between atoms: C_2  and  N_3
REMARK    2  A    between atoms: C_4  and  C_6
REMARK    3  A    between atoms: C_6  and  C_7
REMARK    4  A    between atoms: C_7  and  C_8
REMARK    5  A    between atoms: C_8  and  C_9
REMARK    6  A    between atoms: C_10  and  C_11
REMARK    7  A    between atoms: C_11  and  C_12
REMARK    8  A    between atoms: C_13  and  C_14
REMARK    9  A    between atoms: C_15  and  C_16
REMARK   10  A    between atoms: C_16  and  C_18
REMARK   11  A    between atoms: C_18  and  C_19
REMARK   12  A    between atoms: C_19  and  C_20
REMARK                            x       y       z     vdW  Elec       q    Type
REMARK                         _______ _______ _______ _____ _____    ______ ____
ROOT
ATOM      1  C   UNL     1      -0.870   5.366  -3.618  0.00  0.00    +0.041 C 
ATOM      2  C   UNL     1      -2.574   5.552  -3.549  0.00  0.00    +0.155 C 
ATOM      3  O   UNL     1      -2.767   4.945  -2.169  0.00  0.00    -0.223 OA
ATOM      4  C   UNL     1      -2.429   7.073  -2.899  0.00  0.00    +0.066 C 
ATOM      5  C   UNL     1      -2.192   7.254  -4.520  0.00  0.00    +0.159 C 
ATOM      6  O   UNL     1      -1.909   8.738  -4.396  0.00  0.00    -0.223 OA
ATOM      7  C   UNL     1      -0.559   6.879  -4.262  0.00  0.00    +0.055 C 
ENDROOT
BRANCH   7   8
ATOM      8  C   UNL     1      -0.330   6.372  -5.747  0.00  0.00    -0.026 C 
ATOM      9  C   UNL     1       0.632   6.718  -6.470  0.00  0.00    +0.002 C 
BRANCH   9  10
ATOM     10  C   UNL     1       2.151   6.160  -6.241  0.00  0.00    +0.174 C 
ATOM     11  O   UNL     1       1.866   4.841  -6.957  0.00  0.00    -0.218 OA
BRANCH  10  12
ATOM     12  C   UNL     1       2.649   6.935  -7.626  0.00  0.00    +0.042 C 
BRANCH  12  13
ATOM     13  C   UNL     1       3.290   6.044  -8.549  0.00  0.00    +0.029 C 
BRANCH  13  14
ATOM     14  C   UNL     1       4.561   6.210  -9.147  0.00  0.00    -0.022 A 
ATOM     15  C   UNL     1       4.618   6.817 -10.389  0.00  0.00    -0.004 A 
ATOM     16  C   UNL     1       5.835   7.277 -10.854  0.00  0.00    -0.000 A 
ATOM     17  C   UNL     1       6.954   6.601 -10.431  0.00  0.00    -0.000 A 
ATOM     18  C   UNL     1       6.877   5.636  -9.438  0.00  0.00    -0.000 A 
ATOM     19  C   UNL     1       5.679   5.489  -8.780  0.00  0.00    -0.004 A 
ENDBRANCH  13  14
ENDBRANCH  12  13
ENDBRANCH  10  12
ENDBRANCH   9  10
ENDBRANCH   7   8
BRANCH   1  20
ATOM     20  C   UNL     1      -0.536   5.862  -2.115  0.00  0.00    +0.029 C 
BRANCH  20  22
ATOM     21  C   UNL     1       1.762   5.208  -1.340  0.00  0.00    -0.031 C 
ATOM     22  C   UNL     1       0.539   4.976  -1.742  0.00  0.00    -0.031 C 
BRANCH  21  23
ATOM     23  C   UNL     1       2.075   6.560  -1.221  0.00  0.00    +0.026 C 
BRANCH  23  24
ATOM     24  C   UNL     1       3.409   7.137  -1.211  0.00  0.00    +0.014 C 
BRANCH  24  25
ATOM     25  C   UNL     1       3.313   7.945  -2.522  0.00  0.00    +0.087 C 
BRANCH  25  27
ATOM     26  N   UNL     1       4.750   6.067  -3.061  0.00  0.00    -0.205 NA
ATOM     27  C   UNL     1       4.444   7.459  -3.381  0.00  0.00    +0.241 C 
ATOM     28  O   UNL     1       5.035   8.065  -4.301  0.00  0.00    -0.273 OA
BRANCH  26  30
ATOM     29  C   UNL     1       4.668   4.614  -4.256  0.00  0.00    +0.025 C 
ATOM     30  C   UNL     1       5.049   5.387  -4.317  0.00  0.00    +0.115 C 
ENDBRANCH  26  30
ENDBRANCH  25  27
ENDBRANCH  24  25
ENDBRANCH  23  24
ENDBRANCH  21  23
ENDBRANCH  20  22
ENDBRANCH   1  20
TORSDOF 12
ENDMDL
MODEL 7
REMARK VINA RESULT:      -7.9      3.344      6.198
REMARK  Name = 
REMARK  12 active torsions:
REMARK  status: ('A' for Active; 'I' for Inactive)
REMARK    1  A    between atoms: C_2  and  N_3
REMARK    2  A    between atoms: C_4  and  C_6
REMARK    3  A    between atoms: C_6  and  C_7
REMARK    4  A    between atoms: C_7  and  C_8
REMARK    5  A    between atoms: C_8  and  C_9
REMARK    6  A    between atoms: C_10  and  C_11
REMARK    7  A    between atoms: C_11  and  C_12
REMARK    8  A    between atoms: C_13  and  C_14
REMARK    9  A    between atoms: C_15  and  C_16
REMARK   10  A    between atoms: C_16  and  C_18
REMARK   11  A    between atoms: C_18  and  C_19
REMARK   12  A    between atoms: C_19  and  C_20
REMARK                            x       y       z     vdW  Elec       q    Type
REMARK                         _______ _______ _______ _____ _____    ______ ____
ROOT
ATOM      1  C   UNL     1       2.796   6.979  -4.417  0.00  0.00    +0.041 C 
ATOM      2  C   UNL     1       4.375   7.564  -4.084  0.00  0.00    +0.155 C 
ATOM      3  O   UNL     1       4.002   8.423  -2.887  0.00  0.00    -0.223 OA
ATOM      4  C   UNL     1       4.699   6.267  -3.099  0.00  0.00    +0.066 C 
ATOM      5  C   UNL     1       4.919   5.725  -4.640  0.00  0.00    +0.159 C 
ATOM      6  O   UNL     1       5.221   4.311  -4.186  0.00  0.00    -0.223 OA
ATOM      7  C   UNL     1       3.257   5.395  -4.696  0.00  0.00    +0.055 C 
ENDROOT
BRANCH   7   8
ATOM      8  C   UNL     1       3.183   5.488  -6.277  0.00  0.00    -0.026 C 
ATOM      9  C   UNL     1       2.156   5.245  -6.951  0.00  0.00    +0.002 C 
BRANCH   9  10
ATOM     10  C   UNL     1       0.883   6.268  -7.015  0.00  0.00    +0.174 C 
ATOM     11  O   UNL     1       0.637   6.005  -8.499  0.00  0.00    -0.218 OA
BRANCH  10  12
ATOM     12  C   UNL     1      -0.129   5.045  -6.515  0.00  0.00    +0.042 C 
BRANCH  12  13
ATOM     13  C   UNL     1      -1.453   5.516  -6.228  0.00  0.00    +0.029 C 
BRANCH  13  14
ATOM     14  C   UNL     1      -1.921   6.044  -5.002  0.00  0.00    -0.022 A 
ATOM     15  C   UNL     1      -2.947   5.375  -4.359  0.00  0.00    -0.004 A 
ATOM     16  C   UNL     1      -3.210   5.666  -3.034  0.00  0.00    -0.000 A 
ATOM     17  C   UNL     1      -2.932   6.946  -2.616  0.00  0.00    -0.000 A 
ATOM     18  C   UNL     1      -2.244   7.833  -3.430  0.00  0.00    -0.000 A 
ATOM     19  C   UNL     1      -1.710   7.347  -4.599  0.00  0.00    -0.004 A 
ENDBRANCH  13  14
ENDBRANCH  12  13
ENDBRANCH  10  12
ENDBRANCH   9  10
ENDBRANCH   7   8
BRANCH   1  20
ATOM     20  C   UNL     1       2.360   6.655  -2.892  0.00  0.00    +0.029 C 
BRANCH  20  22
ATOM     21  C   UNL     1       0.377   5.248  -2.266  0.00  0.00    -0.031 C 
ATOM     22  C   UNL     1       1.278   5.721  -3.086  0.00  0.00    -0.031 C 
BRANCH  21  23
ATOM     23  C   UNL     1       0.456   5.762  -0.974  0.00  0.00    +0.026 C 
BRANCH  23  24
ATOM     24  C   UNL     1      -0.191   6.969  -0.487  0.00  0.00    +0.014 C 
BRANCH  24  25
ATOM     25  C   UNL     1       0.401   6.982   0.938  0.00  0.00    +0.087 C 
BRANCH  25  27
ATOM     26  N   UNL     1       2.791   7.244   1.258  0.00  0.00    -0.205 NA
ATOM     27  C   UNL     1       1.560   7.936   0.886  0.00  0.00    +0.241 C 
ATOM     28  O   UNL     1       1.566   9.129   0.518  0.00  0.00    -0.273 OA
BRANCH  26  30
ATOM     29  C   UNL     1       4.575   7.360   0.666  0.00  0.00    +0.025 C 
ATOM     30  C   UNL     1       3.852   7.741   0.388  0.00  0.00    +0.115 C 
ENDBRANCH  26  30
ENDBRANCH  25  27
ENDBRANCH  24  25
ENDBRANCH  23  24
ENDBRANCH  21  23
ENDBRANCH  20  22
ENDBRANCH   1  20
TORSDOF 12
ENDMDL
MODEL 8
REMARK VINA RESULT:      -7.9      2.219      3.306
REMARK  Name = 
REMARK  12 active torsions:
REMARK  status: ('A' for Active; 'I' for Inactive)
REMARK    1  A    between atoms: C_2  and  N_3
REMARK    2  A    between atoms: C_4  and  C_6
REMARK    3  A    between atoms: C_6  and  C_7
REMARK    4  A    between atoms: C_7  and  C_8
REMARK    5  A    between atoms: C_8  and  C_9
REMARK    6  A    between atoms: C_10  and  C_11
REMARK    7  A    between atoms: C_11  and  C_12
REMARK    8  A    between atoms: C_13  and  C_14
REMARK    9  A    between atoms: C_15  and  C_16
REMARK   10  A    between atoms: C_16  and  C_18
REMARK   11  A    between atoms: C_18  and  C_19
REMARK   12  A    between atoms: C_19  and  C_20
REMARK                            x       y       z     vdW  Elec       q    Type
REMARK                         _______ _______ _______ _____ _____    ______ ____
ROOT
ATOM      1  C   UNL     1       2.203   6.274  -6.213  0.00  0.00    +0.041 C 
ATOM      2  C   UNL     1       2.387   6.865  -4.612  0.00  0.00    +0.155 C 
ATOM      3  O   UNL     1       0.909   7.078  -4.326  0.00  0.00    -0.223 OA
ATOM      4  C   UNL     1       2.324   5.329  -3.986  0.00  0.00    +0.066 C 
ATOM      5  C   UNL     1       3.865   5.526  -4.537  0.00  0.00    +0.159 C 
ATOM      6  O   UNL     1       4.261   4.106  -4.181  0.00  0.00    -0.223 OA
ATOM      7  C   UNL     1       3.317   5.033  -6.064  0.00  0.00    +0.055 C 
ENDROOT
BRANCH   7   8
ATOM      8  C   UNL     1       4.482   5.777  -6.840  0.00  0.00    -0.026 C 
ATOM      9  C   UNL     1       4.663   5.708  -8.078  0.00  0.00    +0.002 C 
BRANCH   9  10
ATOM     10  C   UNL     1       3.703   6.480  -9.151  0.00  0.00    +0.174 C 
ATOM     11  O   UNL     1       4.842   6.690 -10.148  0.00  0.00    -0.218 OA
BRANCH  10  12
ATOM     12  C   UNL     1       3.250   5.018  -9.804  0.00  0.00    +0.042 C 
BRANCH  12  13
ATOM     13  C   UNL     1       1.864   4.991 -10.173  0.00  0.00    +0.029 C 
BRANCH  13  14
ATOM     14  C   UNL     1       1.205   5.871 -11.063  0.00  0.00    -0.022 A 
ATOM     15  C   UNL     1       1.890   6.285 -12.191  0.00  0.00    -0.004 A 
ATOM     16  C   UNL     1       1.186   6.873 -13.224  0.00  0.00    -0.000 A 
ATOM     17  C   UNL     1       0.055   7.575 -12.880  0.00  0.00    -0.000 A 
ATOM     18  C   UNL     1      -0.455   7.527 -11.592  0.00  0.00    -0.000 A 
ATOM     19  C   UNL     1       0.110   6.635 -10.712  0.00  0.00    -0.004 A 
ENDBRANCH  13  14
ENDBRANCH  12  13
ENDBRANCH  10  12
ENDBRANCH   9  10
ENDBRANCH   7   8
BRANCH   1  20
ATOM     20  C   UNL     1       0.957   5.279  -5.933  0.00  0.00    +0.029 C 
BRANCH  20  22
ATOM     21  C   UNL     1      -1.061   5.400  -7.424  0.00  0.00    -0.031 C 
ATOM     22  C   UNL     1       0.222   5.372  -7.171  0.00  0.00    -0.031 C 
BRANCH  21  23
ATOM     23  C   UNL     1      -1.866   5.366  -6.287  0.00  0.00    +0.026 C 
BRANCH  23  24
ATOM     24  C   UNL     1      -2.427   6.514  -5.596  0.00  0.00    +0.014 C 
BRANCH  24  25
ATOM     25  C   UNL     1      -2.426   5.936  -4.164  0.00  0.00    +0.087 C 
BRANCH  25  27
ATOM     26  N   UNL     1      -2.762   6.715  -1.892  0.00  0.00    -0.205 NA
ATOM     27  C   UNL     1      -2.404   7.125  -3.248  0.00  0.00    +0.241 C 
ATOM     28  O   UNL     1      -2.070   8.300  -3.510  0.00  0.00    -0.273 OA
BRANCH  26  30
ATOM     29  C   UNL     1      -1.957   7.037  -0.220  0.00  0.00    +0.025 C 
ATOM     30  C   UNL     1      -1.909   7.460  -0.972  0.00  0.00    +0.115 C 
ENDBRANCH  26  30
ENDBRANCH  25  27
ENDBRANCH  24  25
ENDBRANCH  23  24
ENDBRANCH  21  23
ENDBRANCH  20  22
ENDBRANCH   1  20
TORSDOF 12
ENDMDL
MODEL 9
REMARK VINA RESULT:      -7.8      3.498      9.394
REMARK  Name = 
REMARK  12 active torsions:
REMARK  status: ('A' for Active; 'I' for Inactive)
REMARK    1  A    between atoms: C_2  and  N_3
REMARK    2  A    between atoms: C_4  and  C_6
REMARK    3  A    between atoms: C_6  and  C_7
REMARK    4  A    between atoms: C_7  and  C_8
REMARK    5  A    between atoms: C_8  and  C_9
REMARK    6  A    between atoms: C_10  and  C_11
REMARK    7  A    between atoms: C_11  and  C_12
REMARK    8  A    between atoms: C_13  and  C_14
REMARK    9  A    between atoms: C_15  and  C_16
REMARK   10  A    between atoms: C_16  and  C_18
REMARK   11  A    between atoms: C_18  and  C_19
REMARK   12  A    between atoms: C_19  and  C_20
REMARK                            x       y       z     vdW  Elec       q    Type
REMARK                         _______ _______ _______ _____ _____    ______ ____
ROOT
ATOM      1  C   UNL     1       3.722   6.452  -8.879  0.00  0.00    +0.041 C 
ATOM      2  C   UNL     1       2.187   5.927  -9.440  0.00  0.00    +0.155 C 
ATOM      3  O   UNL     1       2.600   5.665 -10.879  0.00  0.00    -0.223 OA
ATOM      4  C   UNL     1       2.518   4.355  -9.021  0.00  0.00    +0.066 C 
ATOM      5  C   UNL     1       2.066   5.105  -7.625  0.00  0.00    +0.159 C 
ATOM      6  O   UNL     1       2.311   3.867  -6.784  0.00  0.00    -0.223 OA
ATOM      7  C   UNL     1       3.677   5.599  -7.439  0.00  0.00    +0.055 C 
ENDROOT
BRANCH   7   8
ATOM      8  C   UNL     1       3.304   6.844  -6.533  0.00  0.00    -0.026 C 
ATOM      9  C   UNL     1       2.673   6.768  -5.453  0.00  0.00    +0.002 C 
BRANCH   9  10
ATOM     10  C   UNL     1       3.351   6.203  -4.077  0.00  0.00    +0.174 C 
ATOM     11  O   UNL     1       3.851   7.583  -3.656  0.00  0.00    -0.218 OA
BRANCH  10  12
ATOM     12  C   UNL     1       1.895   6.366  -3.289  0.00  0.00    +0.042 C 
BRANCH  12  13
ATOM     13  C   UNL     1       0.855   5.587  -3.898  0.00  0.00    +0.029 C 
BRANCH  13  14
ATOM     14  C   UNL     1      -0.357   6.069  -4.447  0.00  0.00    -0.022 A 
ATOM     15  C   UNL     1      -1.191   6.806  -3.626  0.00  0.00    -0.004 A 
ATOM     16  C   UNL     1      -2.206   7.549  -4.197  0.00  0.00    -0.000 A 
ATOM     17  C   UNL     1      -2.739   7.070  -5.370  0.00  0.00    -0.000 A 
ATOM     18  C   UNL     1      -2.155   6.006  -6.041  0.00  0.00    -0.000 A 
ATOM     19  C   UNL     1      -0.941   5.551  -5.585  0.00  0.00    -0.004 A 
ENDBRANCH  13  14
ENDBRANCH  12  13
ENDBRANCH  10  12
ENDBRANCH   9  10
ENDBRANCH   7   8
BRANCH   1  20
ATOM     20  C   UNL     1       4.617   5.314  -9.603  0.00  0.00    +0.029 C 
BRANCH  20  22
ATOM     21  C   UNL     1       7.044   5.887  -9.306  0.00  0.00    -0.031 C 
ATOM     22  C   UNL     1       5.878   5.446  -8.914  0.00  0.00    -0.031 C 
BRANCH  21  23
ATOM     23  C   UNL     1       7.068   6.342 -10.623  0.00  0.00    +0.026 C 
BRANCH  23  24
ATOM     24  C   UNL     1       8.213   6.327 -11.517  0.00  0.00    +0.014 C 
BRANCH  24  25
ATOM     25  C   UNL     1       7.851   5.063 -12.324  0.00  0.00    +0.087 C 
BRANCH  25  27
ATOM     26  N   UNL     1       5.706   4.841 -13.434  0.00  0.00    -0.205 NA
ATOM     27  C   UNL     1       6.989   5.539 -13.458  0.00  0.00    +0.241 C 
ATOM     28  O   UNL     1       7.228   6.441 -14.288  0.00  0.00    -0.273 OA
BRANCH  26  30
ATOM     29  C   UNL     1       3.985   5.345 -14.013  0.00  0.00    +0.025 C 
ATOM     30  C   UNL     1       4.674   5.813 -13.784  0.00  0.00    +0.115 C 
ENDBRANCH  26  30
ENDBRANCH  25  27
ENDBRANCH  24  25
ENDBRANCH  23  24
ENDBRANCH  21  23
ENDBRANCH  20  22
ENDBRANCH   1  20
TORSDOF 12
ENDMDL
