MODEL 1
REMARK VINA RESULT:      -5.5      0.000      0.000
REMARK  Name = 
REMARK  10 active torsions:
REMARK  status: ('A' for Active; 'I' for Inactive)
REMARK    1  A    between atoms: N_2  and  C_3
REMARK    2  A    between atoms: C_3  and  N_8
REMARK    3  A    between atoms: C_4  and  N_5
REMARK    4  A    between atoms: N_8  and  C_9
REMARK    5  A    between atoms: C_9  and  C_10
REMARK    6  A    between atoms: C_10  and  S_11
REMARK    7  A    between atoms: S_11  and  C_12
REMARK    8  A    between atoms: C_12  and  C_13
REMARK    9  A    between atoms: C_16  and  C_17
REMARK   10  A    between atoms: C_17  and  N_18
REMARK                            x       y       z     vdW  Elec       q    Type
REMARK                         _______ _______ _______ _____ _____    ______ ____
ROOT
ATOM      1  S   UNL     1      -1.793   6.981  -5.083  0.00  0.00    -0.129 S 
ENDROOT
BRANCH   1   2
ATOM      2  C   UNL     1      -1.776   5.655  -6.306  0.00  0.00    +0.104 C 
BRANCH   2   3
ATOM      3  C   UNL     1      -0.344   5.254  -6.491  0.00  0.00    +0.077 A 
ATOM      4  N   UNL     1       0.368   5.656  -7.544  0.00  0.00    -0.245 NA
ATOM      5  C   UNL     1       1.432   4.864  -7.781  0.00  0.00    +0.104 A 
ATOM      6  S   UNL     1       1.907   4.508  -6.170  0.00  0.00    -0.069 S 
ATOM      7  C   UNL     1       0.473   5.034  -5.384  0.00  0.00    +0.052 A 
BRANCH   5   8
ATOM      8  C   UNL     1       2.059   4.505  -9.092  0.00  0.00    +0.126 C 
BRANCH   8   9
ATOM      9  N   UNL     1       2.955   5.529  -9.567  0.00  0.00    -0.265 NA
ATOM     10  C   UNL     1       4.276   4.932  -9.752  0.00  0.00    +0.090 C 
ATOM     11  C   UNL     1       2.502   5.888 -10.911  0.00  0.00    +0.090 C 
ENDBRANCH   8   9
ENDBRANCH   5   8
ENDBRANCH   2   3
ENDBRANCH   1   2
BRANCH   1  12
ATOM     12  C   UNL     1      -2.930   6.653  -3.717  0.00  0.00    +0.113 C 
BRANCH  12  13
ATOM     13  C   UNL     1      -2.846   5.214  -3.288  0.00  0.00    +0.263 C 
BRANCH  13  14
ATOM     14  N   UNL     1      -2.378   5.045  -1.933  0.00  0.00    -0.027 NA
BRANCH  14  15
ATOM     15  C   UNL     1      -1.176   5.642  -1.436  0.00  0.00    +0.424 C 
ATOM     16  C   UNL     1      -0.022   5.118  -1.800  0.00  0.00    +0.447 C 
BRANCH  16  17
ATOM     17  N   UNL     1       1.215   5.560  -1.271  0.00  0.00    +0.096 N 
ATOM     18  O   UNL     1       1.915   6.638  -1.760  0.00  0.00    -0.576 OA
ATOM     19  O   UNL     1       1.853   4.722  -0.583  0.00  0.00    +0.042 OA
ENDBRANCH  16  17
BRANCH  15  21
ATOM     20  C   UNL     1      -1.911   7.542  -0.060  0.00  0.00    +0.306 C 
ATOM     21  N   UNL     1      -1.260   6.243  -0.138  0.00  0.00    -0.023 NA
ENDBRANCH  15  21
ENDBRANCH  14  15
ENDBRANCH  13  14
ENDBRANCH  12  13
ENDBRANCH   1  12
TORSDOF 10
ENDMDL
MODEL 2
REMARK VINA RESULT:      -5.5      2.704      5.935
REMARK  Name = 
REMARK  10 active torsions:
REMARK  status: ('A' for Active; 'I' for Inactive)
REMARK    1  A    between atoms: N_2  and  C_3
REMARK    2  A    between atoms: C_3  and  N_8
REMARK    3  A    between atoms: C_4  and  N_5
REMARK    4  A    between atoms: N_8  and  C_9
REMARK    5  A    between atoms: C_9  and  C_10
REMARK    6  A    between atoms: C_10  and  S_11
REMARK    7  A    between atoms: S_11  and  C_12
REMARK    8  A    between atoms: C_12  and  C_13
REMARK    9  A    between atoms: C_16  and  C_17
REMARK   10  A    between atoms: C_17  and  N_18
REMARK                            x       y       z     vdW  Elec       q    Type
REMARK                         _______ _______ _______ _____ _____    ______ ____
ROOT
ATOM      1  S   UNL     1       2.673   4.890  -7.576  0.00  0.00    -0.129 S 
ENDROOT
BRANCH   1   2
ATOM      2  C   UNL     1       1.841   3.914  -6.307  0.00  0.00    +0.104 C 
BRANCH   2   3
ATOM      3  C   UNL     1       0.628   4.688  -5.890  0.00  0.00    +0.077 A 
ATOM      4  N   UNL     1       0.564   5.313  -4.714  0.00  0.00    -0.245 NA
ATOM      5  C   UNL     1      -0.704   5.553  -4.325  0.00  0.00    +0.104 A 
ATOM      6  S   UNL     1      -1.419   5.928  -5.840  0.00  0.00    -0.069 S 
ATOM      7  C   UNL     1      -0.160   5.327  -6.845  0.00  0.00    +0.052 A 
BRANCH   5   8
ATOM      8  C   UNL     1      -1.269   5.579  -2.939  0.00  0.00    +0.126 C 
BRANCH   8   9
ATOM      9  N   UNL     1      -2.010   6.786  -2.674  0.00  0.00    -0.265 NA
ATOM     10  C   UNL     1      -3.428   6.445  -2.592  0.00  0.00    +0.090 C 
ATOM     11  C   UNL     1      -1.637   7.217  -1.327  0.00  0.00    +0.090 C 
ENDBRANCH   8   9
ENDBRANCH   5   8
ENDBRANCH   2   3
ENDBRANCH   1   2
BRANCH   1  12
ATOM     12  C   UNL     1       4.222   5.615  -6.992  0.00  0.00    +0.113 C 
BRANCH  12  13
ATOM     13  C   UNL     1       4.010   6.350  -5.696  0.00  0.00    +0.263 C 
BRANCH  13  14
ATOM     14  N   UNL     1       4.488   5.628  -4.542  0.00  0.00    -0.027 NA
BRANCH  14  15
ATOM     15  C   UNL     1       4.080   5.926  -3.203  0.00  0.00    +0.424 C 
ATOM     16  C   UNL     1       3.842   4.921  -2.383  0.00  0.00    +0.447 C 
BRANCH  16  17
ATOM     17  N   UNL     1       3.322   5.108  -1.079  0.00  0.00    +0.096 N 
ATOM     18  O   UNL     1       3.995   5.763  -0.074  0.00  0.00    -0.576 OA
ATOM     19  O   UNL     1       2.388   4.337  -0.741  0.00  0.00    +0.042 OA
ENDBRANCH  16  17
BRANCH  15  21
ATOM     20  C   UNL     1       4.049   8.301  -2.568  0.00  0.00    +0.306 C 
ATOM     21  N   UNL     1       3.320   7.128  -3.027  0.00  0.00    -0.023 NA
ENDBRANCH  15  21
ENDBRANCH  14  15
ENDBRANCH  13  14
ENDBRANCH  12  13
ENDBRANCH   1  12
TORSDOF 10
ENDMDL
MODEL 3
REMARK VINA RESULT:      -5.4      2.785      4.759
REMARK  Name = 
REMARK  10 active torsions:
REMARK  status: ('A' for Active; 'I' for Inactive)
REMARK    1  A    between atoms: N_2  and  C_3
REMARK    2  A    between atoms: C_3  and  N_8
REMARK    3  A    between atoms: C_4  and  N_5
REMARK    4  A    between atoms: N_8  and  C_9
REMARK    5  A    between atoms: C_9  and  C_10
REMARK    6  A    between atoms: C_10  and  S_11
REMARK    7  A    between atoms: S_11  and  C_12
REMARK    8  A    between atoms: C_12  and  C_13
REMARK    9  A    between atoms: C_16  and  C_17
REMARK   10  A    between atoms: C_17  and  N_18
REMARK                            x       y       z     vdW  Elec       q    Type
REMARK                         _______ _______ _______ _____ _____    ______ ____
ROOT
ATOM      1  S   UNL     1       2.960   6.622  -6.493  0.00  0.00    -0.129 S 
ENDROOT
BRANCH   1   2
ATOM      2  C   UNL     1       4.276   5.541  -7.087  0.00  0.00    +0.104 C 
BRANCH   2   3
ATOM      3  C   UNL     1       4.277   5.638  -8.582  0.00  0.00    +0.077 A 
ATOM      4  N   UNL     1       3.415   6.419  -9.235  0.00  0.00    -0.245 NA
ATOM      5  C   UNL     1       3.254   6.048 -10.521  0.00  0.00    +0.104 A 
ATOM      6  S   UNL     1       4.860   5.579 -10.902  0.00  0.00    -0.069 S 
ATOM      7  C   UNL     1       5.464   5.490  -9.296  0.00  0.00    +0.052 A 
BRANCH   5   8
ATOM      8  C   UNL     1       2.027   6.136 -11.374  0.00  0.00    +0.126 C 
BRANCH   8   9
ATOM      9  N   UNL     1       0.820   6.203 -10.590  0.00  0.00    -0.265 NA
ATOM     10  C   UNL     1      -0.115   7.100 -11.263  0.00  0.00    +0.090 C 
ATOM     11  C   UNL     1       0.204   4.878 -10.661  0.00  0.00    +0.090 C 
ENDBRANCH   8   9
ENDBRANCH   5   8
ENDBRANCH   2   3
ENDBRANCH   1   2
BRANCH   1  12
ATOM     12  C   UNL     1       2.976   6.817  -4.697  0.00  0.00    +0.113 C 
BRANCH  12  13
ATOM     13  C   UNL     1       1.986   5.886  -4.051  0.00  0.00    +0.263 C 
BRANCH  13  14
ATOM     14  N   UNL     1       0.897   5.513  -4.921  0.00  0.00    -0.027 NA
BRANCH  14  15
ATOM     15  C   UNL     1      -0.477   5.767  -4.615  0.00  0.00    +0.424 C 
ATOM     16  C   UNL     1      -0.881   5.603  -3.369  0.00  0.00    +0.447 C 
BRANCH  16  17
ATOM     17  N   UNL     1      -2.240   5.713  -2.988  0.00  0.00    +0.096 N 
ATOM     18  O   UNL     1      -2.829   6.891  -2.592  0.00  0.00    -0.576 OA
ATOM     19  O   UNL     1      -2.810   4.643  -2.657  0.00  0.00    +0.042 OA
ENDBRANCH  16  17
BRANCH  15  21
ATOM     20  C   UNL     1      -0.879   5.390  -7.011  0.00  0.00    +0.306 C 
ATOM     21  N   UNL     1      -1.417   5.504  -5.664  0.00  0.00    -0.023 NA
ENDBRANCH  15  21
ENDBRANCH  14  15
ENDBRANCH  13  14
ENDBRANCH  12  13
ENDBRANCH   1  12
TORSDOF 10
ENDMDL
MODEL 4
REMARK VINA RESULT:      -5.4      7.119      9.054
REMARK  Name = 
REMARK  10 active torsions:
REMARK  status: ('A' for Active; 'I' for Inactive)
REMARK    1  A    between atoms: N_2  and  C_3
REMARK    2  A    between atoms: C_3  and  N_8
REMARK    3  A    between atoms: C_4  and  N_5
REMARK    4  A    between atoms: N_8  and  C_9
REMARK    5  A    between atoms: C_9  and  C_10
REMARK    6  A    between atoms: C_10  and  S_11
REMARK    7  A    between atoms: S_11  and  C_12
REMARK    8  A    between atoms: C_12  and  C_13
REMARK    9  A    between atoms: C_16  and  C_17
REMARK   10  A    between atoms: C_17  and  N_18
REMARK                            x       y       z     vdW  Elec       q    Type
REMARK                         _______ _______ _______ _____ _____    ______ ____
ROOT
ATOM      1  S   UNL     1       2.693   5.514  -7.437  0.00  0.00    -0.129 S 
ENDROOT
BRANCH   1   2
ATOM      2  C   UNL     1       2.002   6.897  -8.366  0.00  0.00    +0.104 C 
BRANCH   2   3
ATOM      3  C   UNL     1       1.360   6.320  -9.591  0.00  0.00    +0.077 A 
ATOM      4  N   UNL     1       1.832   6.569 -10.813  0.00  0.00    -0.245 NA
ATOM      5  C   UNL     1       0.908   6.365 -11.774  0.00  0.00    +0.104 A 
ATOM      6  S   UNL     1       0.106   4.988 -11.134  0.00  0.00    -0.069 S 
ATOM      7  C   UNL     1       0.730   5.079  -9.536  0.00  0.00    +0.052 A 
BRANCH   5   8
ATOM      8  C   UNL     1       0.731   7.091 -13.071  0.00  0.00    +0.126 C 
BRANCH   8   9
ATOM      9  N   UNL     1       0.919   6.228 -14.209  0.00  0.00    -0.265 NA
ATOM     10  C   UNL     1       0.633   6.996 -15.419  0.00  0.00    +0.090 C 
ATOM     11  C   UNL     1       2.350   5.927 -14.272  0.00  0.00    +0.090 C 
ENDBRANCH   8   9
ENDBRANCH   5   8
ENDBRANCH   2   3
ENDBRANCH   1   2
BRANCH   1  12
ATOM     12  C   UNL     1       4.495   5.586  -7.320  0.00  0.00    +0.113 C 
BRANCH  12  13
ATOM     13  C   UNL     1       5.132   4.980  -8.541  0.00  0.00    +0.263 C 
BRANCH  13  14
ATOM     14  N   UNL     1       6.154   5.813  -9.128  0.00  0.00    -0.027 NA
BRANCH  14  15
ATOM     15  C   UNL     1       6.494   5.779 -10.518  0.00  0.00    +0.424 C 
ATOM     16  C   UNL     1       7.705   5.382 -10.856  0.00  0.00    +0.447 C 
BRANCH  16  17
ATOM     17  N   UNL     1       8.176   5.427 -12.191  0.00  0.00    +0.096 N 
ATOM     18  O   UNL     1       7.675   4.644 -13.205  0.00  0.00    -0.576 OA
ATOM     19  O   UNL     1       9.318   5.925 -12.358  0.00  0.00    +0.042 OA
ENDBRANCH  16  17
BRANCH  15  21
ATOM     20  C   UNL     1       6.348   8.120 -11.257  0.00  0.00    +0.306 C 
ATOM     21  N   UNL     1       5.852   6.755 -11.348  0.00  0.00    -0.023 NA
ENDBRANCH  15  21
ENDBRANCH  14  15
ENDBRANCH  13  14
ENDBRANCH  12  13
ENDBRANCH   1  12
TORSDOF 10
ENDMDL
MODEL 5
REMARK VINA RESULT:      -5.4      4.879      9.484
REMARK  Name = 
REMARK  10 active torsions:
REMARK  status: ('A' for Active; 'I' for Inactive)
REMARK    1  A    between atoms: N_2  and  C_3
REMARK    2  A    between atoms: C_3  and  N_8
REMARK    3  A    between atoms: C_4  and  N_5
REMARK    4  A    between atoms: N_8  and  C_9
REMARK    5  A    between atoms: C_9  and  C_10
REMARK    6  A    between atoms: C_10  and  S_11
REMARK    7  A    between atoms: S_11  and  C_12
REMARK    8  A    between atoms: C_12  and  C_13
REMARK    9  A    between atoms: C_16  and  C_17
REMARK   10  A    between atoms: C_17  and  N_18
REMARK                            x       y       z     vdW  Elec       q    Type
REMARK                         _______ _______ _______ _____ _____    ______ ____
ROOT
ATOM      1  S   UNL     1       4.154   4.869  -8.275  0.00  0.00    -0.129 S 
ENDROOT
BRANCH   1   2
ATOM      2  C   UNL     1       2.560   4.118  -7.887  0.00  0.00    +0.104 C 
BRANCH   2   3
ATOM      3  C   UNL     1       2.170   4.607  -6.525  0.00  0.00    +0.077 A 
ATOM      4  N   UNL     1       1.005   4.276  -5.967  0.00  0.00    -0.245 NA
ATOM      5  C   UNL     1       0.636   5.134  -4.995  0.00  0.00    +0.104 A 
ATOM      6  S   UNL     1       2.166   5.472  -4.294  0.00  0.00    -0.069 S 
ATOM      7  C   UNL     1       3.145   4.843  -5.558  0.00  0.00    +0.052 A 
BRANCH   5   8
ATOM      8  C   UNL     1      -0.743   5.564  -4.601  0.00  0.00    +0.126 C 
BRANCH   8   9
ATOM      9  N   UNL     1      -1.325   6.471  -5.557  0.00  0.00    -0.265 NA
ATOM     10  C   UNL     1      -2.343   5.747  -6.314  0.00  0.00    +0.090 C 
ATOM     11  C   UNL     1      -2.059   7.474  -4.785  0.00  0.00    +0.090 C 
ENDBRANCH   8   9
ENDBRANCH   5   8
ENDBRANCH   2   3
ENDBRANCH   1   2
BRANCH   1  12
ATOM     12  C   UNL     1       4.002   6.292  -9.378  0.00  0.00    +0.113 C 
BRANCH  12  13
ATOM     13  C   UNL     1       3.105   5.971 -10.543  0.00  0.00    +0.263 C 
BRANCH  13  14
ATOM     14  N   UNL     1       3.684   6.304 -11.822  0.00  0.00    -0.027 NA
BRANCH  14  15
ATOM     15  C   UNL     1       4.757   5.566 -12.416  0.00  0.00    +0.424 C 
ATOM     16  C   UNL     1       5.950   6.125 -12.463  0.00  0.00    +0.447 C 
BRANCH  16  17
ATOM     17  N   UNL     1       7.045   5.528 -13.133  0.00  0.00    +0.096 N 
ATOM     18  O   UNL     1       7.828   4.538 -12.588  0.00  0.00    -0.576 OA
ATOM     19  O   UNL     1       7.527   6.180 -14.095  0.00  0.00    +0.042 OA
ENDBRANCH  16  17
BRANCH  15  21
ATOM     20  C   UNL     1       3.122   4.914 -14.133  0.00  0.00    +0.306 C 
ATOM     21  N   UNL     1       4.395   4.668 -13.473  0.00  0.00    -0.023 NA
ENDBRANCH  15  21
ENDBRANCH  14  15
ENDBRANCH  13  14
ENDBRANCH  12  13
ENDBRANCH   1  12
TORSDOF 10
ENDMDL
MODEL 6
REMARK VINA RESULT:      -5.4      5.163      9.229
REMARK  Name = 
REMARK  10 active torsions:
REMARK  status: ('A' for Active; 'I' for Inactive)
REMARK    1  A    between atoms: N_2  and  C_3
REMARK    2  A    between atoms: C_3  and  N_8
REMARK    3  A    between atoms: C_4  and  N_5
REMARK    4  A    between atoms: N_8  and  C_9
REMARK    5  A    between atoms: C_9  and  C_10
REMARK    6  A    between atoms: C_10  and  S_11
REMARK    7  A    between atoms: S_11  and  C_12
REMARK    8  A    between atoms: C_12  and  C_13
REMARK    9  A    between atoms: C_16  and  C_17
REMARK   10  A    between atoms: C_17  and  N_18
REMARK                            x       y       z     vdW  Elec       q    Type
REMARK                         _______ _______ _______ _____ _____    ______ ____
ROOT
ATOM      1  S   UNL     1       3.011   4.277  -8.909  0.00  0.00    -0.129 S 
ENDROOT
BRANCH   1   2
ATOM      2  C   UNL     1       1.413   5.105  -9.038  0.00  0.00    +0.104 C 
BRANCH   2   3
ATOM      3  C   UNL     1       1.029   5.525  -7.652  0.00  0.00    +0.077 A 
ATOM      4  N   UNL     1       1.712   6.457  -6.986  0.00  0.00    -0.245 NA
ATOM      5  C   UNL     1       1.526   6.380  -5.654  0.00  0.00    +0.104 A 
ATOM      6  S   UNL     1      -0.136   5.951  -5.606  0.00  0.00    -0.069 S 
ATOM      7  C   UNL     1      -0.306   5.496  -7.254  0.00  0.00    +0.052 A 
BRANCH   5   8
ATOM      8  C   UNL     1       2.492   6.692  -4.554  0.00  0.00    +0.126 C 
BRANCH   8   9
ATOM      9  N   UNL     1       2.842   5.524  -3.787  0.00  0.00    -0.265 NA
ATOM     10  C   UNL     1       4.233   5.655  -3.361  0.00  0.00    +0.090 C 
ATOM     11  C   UNL     1       2.054   5.583  -2.555  0.00  0.00    +0.090 C 
ENDBRANCH   8   9
ENDBRANCH   5   8
ENDBRANCH   2   3
ENDBRANCH   1   2
BRANCH   1  12
ATOM     12  C   UNL     1       4.388   5.344  -9.391  0.00  0.00    +0.113 C 
BRANCH  12  13
ATOM     13  C   UNL     1       5.588   5.089  -8.520  0.00  0.00    +0.263 C 
BRANCH  13  14
ATOM     14  N   UNL     1       6.757   5.834  -8.921  0.00  0.00    -0.027 NA
BRANCH  14  15
ATOM     15  C   UNL     1       7.098   6.086 -10.288  0.00  0.00    +0.424 C 
ATOM     16  C   UNL     1       7.823   5.188 -10.927  0.00  0.00    +0.447 C 
BRANCH  16  17
ATOM     17  N   UNL     1       8.311   5.397 -12.240  0.00  0.00    +0.096 N 
ATOM     18  O   UNL     1       7.746   4.840 -13.364  0.00  0.00    -0.576 OA
ATOM     19  O   UNL     1       9.498   5.800 -12.331  0.00  0.00    +0.042 OA
ENDBRANCH  16  17
BRANCH  15  21
ATOM     20  C   UNL     1       6.195   8.053 -11.454  0.00  0.00    +0.306 C 
ATOM     21  N   UNL     1       7.258   7.461 -10.656  0.00  0.00    -0.023 NA
ENDBRANCH  15  21
ENDBRANCH  14  15
ENDBRANCH  13  14
ENDBRANCH  12  13
ENDBRANCH   1  12
TORSDOF 10
ENDMDL
MODEL 7
REMARK VINA RESULT:      -5.3      2.925      4.550
REMARK  Name = 
REMARK  10 active torsions:
REMARK  status: ('A' for Active; 'I' for Inactive)
REMARK    1  A    between atoms: N_2  and  C_3
REMARK    2  A    between atoms: C_3  and  N_8
REMARK    3  A    between atoms: C_4  and  N_5
REMARK    4  A    between atoms: N_8  and  C_9
REMARK    5  A    between atoms: C_9  and  C_10
REMARK    6  A    between atoms: C_10  and  S_11
REMARK    7  A    between atoms: S_11  and  C_12
REMARK    8  A    between atoms: C_12  and  C_13
REMARK    9  A    between atoms: C_16  and  C_17
REMARK   10  A    between atoms: C_17  and  N_18
REMARK                            x       y       z     vdW  Elec       q    Type
REMARK                         _______ _______ _______ _____ _____    ______ ____
ROOT
ATOM      1  S   UNL     1       2.245   4.305  -7.464  0.00  0.00    -0.129 S 
ENDROOT
BRANCH   1   2
ATOM      2  C   UNL     1       3.331   5.691  -7.853  0.00  0.00    +0.104 C 
BRANCH   2   3
ATOM      3  C   UNL     1       3.485   5.717  -9.344  0.00  0.00    +0.077 A 
ATOM      4  N   UNL     1       4.439   5.020  -9.963  0.00  0.00    -0.245 NA
ATOM      5  C   UNL     1       4.714   5.500 -11.192  0.00  0.00    +0.104 A 
ATOM      6  S   UNL     1       3.136   5.947 -11.700  0.00  0.00    -0.069 S 
ATOM      7  C   UNL     1       2.371   5.884 -10.162  0.00  0.00    +0.052 A 
BRANCH   5   8
ATOM      8  C   UNL     1       6.022   5.522 -11.918  0.00  0.00    +0.126 C 
BRANCH   8   9
ATOM      9  N   UNL     1       7.115   5.908 -11.062  0.00  0.00    -0.265 NA
ATOM     10  C   UNL     1       8.366   5.618 -11.758  0.00  0.00    +0.090 C 
ATOM     11  C   UNL     1       7.063   7.366 -10.952  0.00  0.00    +0.090 C 
ENDBRANCH   8   9
ENDBRANCH   5   8
ENDBRANCH   2   3
ENDBRANCH   1   2
BRANCH   1  12
ATOM     12  C   UNL     1       1.097   4.678  -6.118  0.00  0.00    +0.113 C 
BRANCH  12  13
ATOM     13  C   UNL     1       1.839   4.865  -4.822  0.00  0.00    +0.263 C 
BRANCH  13  14
ATOM     14  N   UNL     1       1.155   5.727  -3.889  0.00  0.00    -0.027 NA
BRANCH  14  15
ATOM     15  C   UNL     1      -0.005   5.326  -3.152  0.00  0.00    +0.424 C 
ATOM     16  C   UNL     1      -1.127   5.992  -3.342  0.00  0.00    +0.447 C 
BRANCH  16  17
ATOM     17  N   UNL     1      -2.295   5.751  -2.577  0.00  0.00    +0.096 N 
ATOM     18  O   UNL     1      -2.615   6.442  -1.432  0.00  0.00    -0.576 OA
ATOM     19  O   UNL     1      -2.849   4.636  -2.752  0.00  0.00    +0.042 OA
ENDBRANCH  16  17
BRANCH  15  21
ATOM     20  C   UNL     1       1.088   5.539  -0.960  0.00  0.00    +0.306 C 
ATOM     21  N   UNL     1       0.234   4.771  -1.853  0.00  0.00    -0.023 NA
ENDBRANCH  15  21
ENDBRANCH  14  15
ENDBRANCH  13  14
ENDBRANCH  12  13
ENDBRANCH   1  12
TORSDOF 10
ENDMDL
MODEL 8
REMARK VINA RESULT:      -5.3      4.660      9.272
REMARK  Name = 
REMARK  10 active torsions:
REMARK  status: ('A' for Active; 'I' for Inactive)
REMARK    1  A    between atoms: N_2  and  C_3
REMARK    2  A    between atoms: C_3  and  N_8
REMARK    3  A    between atoms: C_4  and  N_5
REMARK    4  A    between atoms: N_8  and  C_9
REMARK    5  A    between atoms: C_9  and  C_10
REMARK    6  A    between atoms: C_10  and  S_11
REMARK    7  A    between atoms: S_11  and  C_12
REMARK    8  A    between atoms: C_12  and  C_13
REMARK    9  A    between atoms: C_16  and  C_17
REMARK   10  A    between atoms: C_17  and  N_18
REMARK                            x       y       z     vdW  Elec       q    Type
REMARK                         _______ _______ _______ _____ _____    ______ ____
ROOT
ATOM      1  S   UNL     1       3.565   5.480  -8.015  0.00  0.00    -0.129 S 
ENDROOT
BRANCH   1   2
ATOM      2  C   UNL     1       2.487   4.184  -7.374  0.00  0.00    +0.104 C 
BRANCH   2   3
ATOM      3  C   UNL     1       1.870   4.715  -6.116  0.00  0.00    +0.077 A 
ATOM      4  N   UNL     1       0.584   4.516  -5.827  0.00  0.00    -0.245 NA
ATOM      5  C   UNL     1       0.110   5.411  -4.938  0.00  0.00    +0.104 A 
ATOM      6  S   UNL     1       1.481   5.578  -3.918  0.00  0.00    -0.069 S 
ATOM      7  C   UNL     1       2.634   4.841  -4.958  0.00  0.00    +0.052 A 
BRANCH   5   8
ATOM      8  C   UNL     1      -1.265   5.993  -4.837  0.00  0.00    +0.126 C 
BRANCH   8   9
ATOM      9  N   UNL     1      -1.744   6.032  -3.479  0.00  0.00    -0.265 NA
ATOM     10  C   UNL     1      -2.166   7.398  -3.181  0.00  0.00    +0.090 C 
ATOM     11  C   UNL     1      -2.968   5.233  -3.446  0.00  0.00    +0.090 C 
ENDBRANCH   8   9
ENDBRANCH   5   8
ENDBRANCH   2   3
ENDBRANCH   1   2
BRANCH   1  12
ATOM     12  C   UNL     1       2.702   6.618  -9.122  0.00  0.00    +0.113 C 
BRANCH  12  13
ATOM     13  C   UNL     1       3.032   6.316 -10.559  0.00  0.00    +0.263 C 
BRANCH  13  14
ATOM     14  N   UNL     1       4.213   5.502 -10.718  0.00  0.00    -0.027 NA
BRANCH  14  15
ATOM     15  C   UNL     1       5.394   5.951 -11.389  0.00  0.00    +0.424 C 
ATOM     16  C   UNL     1       5.811   5.275 -12.442  0.00  0.00    +0.447 C 
BRANCH  16  17
ATOM     17  N   UNL     1       7.029   5.567 -13.101  0.00  0.00    +0.096 N 
ATOM     18  O   UNL     1       7.137   6.445 -14.155  0.00  0.00    -0.576 OA
ATOM     19  O   UNL     1       7.953   4.726 -12.954  0.00  0.00    +0.042 OA
ENDBRANCH  16  17
BRANCH  15  21
ATOM     20  C   UNL     1       7.029   5.765  -9.562  0.00  0.00    +0.306 C 
ATOM     21  N   UNL     1       6.381   6.590 -10.570  0.00  0.00    -0.023 NA
ENDBRANCH  15  21
ENDBRANCH  14  15
ENDBRANCH  13  14
ENDBRANCH  12  13
ENDBRANCH   1  12
TORSDOF 10
ENDMDL
MODEL 9
REMARK VINA RESULT:      -5.3      5.059      8.488
REMARK  Name = 
REMARK  10 active torsions:
REMARK  status: ('A' for Active; 'I' for Inactive)
REMARK    1  A    between atoms: N_2  and  C_3
REMARK    2  A    between atoms: C_3  and  N_8
REMARK    3  A    between atoms: C_4  and  N_5
REMARK    4  A    between atoms: N_8  and  C_9
REMARK    5  A    between atoms: C_9  and  C_10
REMARK    6  A    between atoms: C_10  and  S_11
REMARK    7  A    between atoms: S_11  and  C_12
REMARK    8  A    between atoms: C_12  and  C_13
REMARK    9  A    between atoms: C_16  and  C_17
REMARK   10  A    between atoms: C_17  and  N_18
REMARK                            x       y       z     vdW  Elec       q    Type
REMARK                         _______ _______ _______ _____ _____    ______ ____
ROOT
ATOM      1  S   UNL     1       1.693   6.329  -9.065  0.00  0.00    -0.129 S 
ENDROOT
BRANCH   1   2
ATOM      2  C   UNL     1       0.176   5.548  -8.478  0.00  0.00    +0.104 C 
BRANCH   2   3
ATOM      3  C   UNL     1       0.182   5.657  -6.984  0.00  0.00    +0.077 A 
ATOM      4  N   UNL     1       1.069   6.416  -6.338  0.00  0.00    -0.245 NA
ATOM      5  C   UNL     1       1.221   6.049  -5.050  0.00  0.00    +0.104 A 
ATOM      6  S   UNL     1      -0.398   5.632  -4.662  0.00  0.00    -0.069 S 
ATOM      7  C   UNL     1      -1.008   5.550  -6.267  0.00  0.00    +0.052 A 
BRANCH   5   8
ATOM      8  C   UNL     1       2.452   6.106  -4.200  0.00  0.00    +0.126 C 
BRANCH   8   9
ATOM      9  N   UNL     1       3.658   6.124  -4.987  0.00  0.00    -0.265 NA
ATOM     10  C   UNL     1       4.371   7.368  -4.705  0.00  0.00    +0.090 C 
ATOM     11  C   UNL     1       4.514   5.060  -4.461  0.00  0.00    +0.090 C 
ENDBRANCH   8   9
ENDBRANCH   5   8
ENDBRANCH   2   3
ENDBRANCH   1   2
BRANCH   1  12
ATOM     12  C   UNL     1       2.397   5.490 -10.502  0.00  0.00    +0.113 C 
BRANCH  12  13
ATOM     13  C   UNL     1       3.372   6.385 -11.217  0.00  0.00    +0.263 C 
BRANCH  13  14
ATOM     14  N   UNL     1       4.457   6.836 -10.380  0.00  0.00    -0.027 NA
BRANCH  14  15
ATOM     15  C   UNL     1       5.808   6.391 -10.536  0.00  0.00    +0.424 C 
ATOM     16  C   UNL     1       6.212   6.030 -11.739  0.00  0.00    +0.447 C 
BRANCH  16  17
ATOM     17  N   UNL     1       7.489   5.465 -11.976  0.00  0.00    +0.096 N 
ATOM     18  O   UNL     1       8.673   6.098 -11.677  0.00  0.00    -0.576 OA
ATOM     19  O   UNL     1       7.532   4.527 -12.813  0.00  0.00    +0.042 OA
ENDBRANCH  16  17
BRANCH  15  21
ATOM     20  C   UNL     1       5.465   5.160  -8.435  0.00  0.00    +0.306 C 
ATOM     21  N   UNL     1       6.388   5.726  -9.407  0.00  0.00    -0.023 NA
ENDBRANCH  15  21
ENDBRANCH  14  15
ENDBRANCH  13  14
ENDBRANCH  12  13
ENDBRANCH   1  12
TORSDOF 10
ENDMDL
