MODEL 1
REMARK VINA RESULT:      -6.9      0.000      0.000
REMARK  Name = 
REMARK  3 active torsions:
REMARK  status: ('A' for Active; 'I' for Inactive)
REMARK    1  A    between atoms: O_2  and  C_3
REMARK    2  A    between atoms: N_12  and  C1*_13
REMARK    3  A    between atoms: C4*_15  and  C5*_16
REMARK                            x       y       z     vdW  Elec       q    Type
REMARK                         _______ _______ _______ _____ _____    ______ ____
ROOT
ATOM      1  C   UNL     1       1.058   5.368 -11.901  0.00  0.00    +0.249 A 
ATOM      2  C   UNL     1       2.364   5.720 -11.683  0.00  0.00    +0.170 A 
ATOM      3  N   UNL     1       2.893   6.398 -10.660  0.00  0.00    -0.217 NA
ATOM      4  C   UNL     1       4.172   6.428 -10.888  0.00  0.00    +0.182 A 
ATOM      5  N   UNL     1       4.505   6.192 -12.194  0.00  0.00    -0.269 N 
ATOM      6  C   UNL     1       3.325   5.722 -12.695  0.00  0.00    +0.172 A 
ATOM      7  N   UNL     1       2.849   5.484 -13.921  0.00  0.00    -0.192 NA
ATOM      8  C   UNL     1       1.512   5.625 -14.150  0.00  0.00    +0.261 A 
ATOM      9  N   UNL     1       1.017   6.213 -15.366  0.00  0.00    -0.086 NA
ATOM     10  N   UNL     1       0.606   5.394 -13.160  0.00  0.00    -0.175 NA
ENDROOT
BRANCH   5  11
ATOM     11  C1* UNL     1       5.663   5.097 -12.384  0.00  0.00    +0.241 C 
ATOM     12  C2* UNL     1       6.407   5.776 -13.760  0.00  0.00    +0.234 C 
ATOM     13  O2* UNL     1       5.902   7.179 -13.725  0.00  0.00    -0.216 OA
ATOM     14  C3* UNL     1       7.940   5.973 -13.088  0.00  0.00    +0.216 C 
ATOM     15  O3* UNL     1       7.939   4.556 -12.573  0.00  0.00    -0.218 OA
ATOM     16  C4* UNL     1       7.515   6.573 -11.549  0.00  0.00    +0.183 C 
ATOM     17  O4* UNL     1       6.443   5.642 -11.293  0.00  0.00    -0.331 OA
BRANCH  16  18
ATOM     18  C5* UNL     1       6.585   7.842 -12.005  0.00  0.00    +0.214 C 
ATOM     19  O5* UNL     1       6.659   8.874 -11.207  0.00  0.00    -0.218 OA
ENDBRANCH  16  18
ENDBRANCH   5  11
BRANCH   1  21
ATOM     20  C   UNL     1      -0.083   4.601 -10.577  0.00  0.00    +0.254 C 
ATOM     21  O   UNL     1       0.378   4.800 -10.825  0.00  0.00    -0.455 OA
ENDBRANCH   1  21
TORSDOF 3
ENDMDL
MODEL 2
REMARK VINA RESULT:      -6.7      8.531     11.670
REMARK  Name = 
REMARK  3 active torsions:
REMARK  status: ('A' for Active; 'I' for Inactive)
REMARK    1  A    between atoms: O_2  and  C_3
REMARK    2  A    between atoms: N_12  and  C1*_13
REMARK    3  A    between atoms: C4*_15  and  C5*_16
REMARK                            x       y       z     vdW  Elec       q    Type
REMARK                         _______ _______ _______ _____ _____    ______ ____
ROOT
ATOM      1  C   UNL     1       3.768   5.868  -2.992  0.00  0.00    +0.249 A 
ATOM      2  C   UNL     1       2.471   6.106  -3.366  0.00  0.00    +0.170 A 
ATOM      3  N   UNL     1       2.011   6.705  -4.470  0.00  0.00    -0.217 NA
ATOM      4  C   UNL     1       0.716   6.639  -4.384  0.00  0.00    +0.182 A 
ATOM      5  N   UNL     1       0.257   6.422  -3.114  0.00  0.00    -0.269 N 
ATOM      6  C   UNL     1       1.405   6.067  -2.467  0.00  0.00    +0.172 A 
ATOM      7  N   UNL     1       1.756   5.910  -1.187  0.00  0.00    -0.192 NA
ATOM      8  C   UNL     1       3.045   6.165  -0.819  0.00  0.00    +0.261 A 
ATOM      9  N   UNL     1       3.354   6.833   0.417  0.00  0.00    -0.086 NA
ATOM     10  N   UNL     1       4.072   5.973  -1.693  0.00  0.00    -0.175 NA
ENDROOT
BRANCH   5  11
ATOM     11  C1* UNL     1      -0.829   5.246  -3.005  0.00  0.00    +0.241 C 
ATOM     12  C2* UNL     1      -1.752   5.893  -1.724  0.00  0.00    +0.234 C 
ATOM     13  O2* UNL     1      -1.351   7.329  -1.750  0.00  0.00    -0.216 OA
ATOM     14  C3* UNL     1      -3.222   5.957  -2.543  0.00  0.00    +0.216 C 
ATOM     15  O3* UNL     1      -3.066   4.534  -3.017  0.00  0.00    -0.218 OA
ATOM     16  C4* UNL     1      -2.697   6.557  -4.051  0.00  0.00    +0.183 C 
ATOM     17  O4* UNL     1      -1.538   5.707  -4.180  0.00  0.00    -0.331 OA
BRANCH  16  18
ATOM     18  C5* UNL     1      -1.913   7.903  -3.544  0.00  0.00    +0.214 C 
ATOM     19  O5* UNL     1      -1.978   8.907  -4.377  0.00  0.00    -0.218 OA
ENDBRANCH  16  18
ENDBRANCH   5  11
BRANCH   1  21
ATOM     20  C   UNL     1       4.990   4.952  -4.136  0.00  0.00    +0.254 C 
ATOM     21  O   UNL     1       4.606   5.320  -3.961  0.00  0.00    -0.455 OA
ENDBRANCH   1  21
TORSDOF 3
ENDMDL
MODEL 3
REMARK VINA RESULT:      -6.6      2.955      5.909
REMARK  Name = 
REMARK  3 active torsions:
REMARK  status: ('A' for Active; 'I' for Inactive)
REMARK    1  A    between atoms: O_2  and  C_3
REMARK    2  A    between atoms: N_12  and  C1*_13
REMARK    3  A    between atoms: C4*_15  and  C5*_16
REMARK                            x       y       z     vdW  Elec       q    Type
REMARK                         _______ _______ _______ _____ _____    ______ ____
ROOT
ATOM      1  C   UNL     1       6.821   5.433 -11.687  0.00  0.00    +0.249 A 
ATOM      2  C   UNL     1       6.068   5.489 -10.543  0.00  0.00    +0.170 A 
ATOM      3  N   UNL     1       6.372   5.061  -9.314  0.00  0.00    -0.217 NA
ATOM      4  C   UNL     1       5.357   5.388  -8.572  0.00  0.00    +0.182 A 
ATOM      5  N   UNL     1       4.210   5.625  -9.280  0.00  0.00    -0.269 N 
ATOM      6  C   UNL     1       4.688   5.699 -10.556  0.00  0.00    +0.172 A 
ATOM      7  N   UNL     1       4.134   5.709 -11.772  0.00  0.00    -0.192 NA
ATOM      8  C   UNL     1       4.825   5.172 -12.818  0.00  0.00    +0.261 A 
ATOM      9  N   UNL     1       4.167   4.388 -13.829  0.00  0.00    -0.086 NA
ATOM     10  N   UNL     1       6.187   5.196 -12.841  0.00  0.00    -0.175 NA
ENDROOT
BRANCH   5  11
ATOM     11  C1* UNL     1       3.470   6.992  -8.885  0.00  0.00    +0.241 C 
ATOM     12  C2* UNL     1       1.874   6.513  -9.248  0.00  0.00    +0.234 C 
ATOM     13  O2* UNL     1       1.994   5.026  -9.262  0.00  0.00    -0.216 OA
ATOM     14  C3* UNL     1       1.228   6.766  -7.713  0.00  0.00    +0.216 C 
ATOM     15  O3* UNL     1       1.846   8.140  -7.637  0.00  0.00    -0.218 OA
ATOM     16  C4* UNL     1       2.477   6.111  -6.753  0.00  0.00    +0.183 C 
ATOM     17  O4* UNL     1       3.576   6.713  -7.467  0.00  0.00    -0.331 OA
BRANCH  16  18
ATOM     18  C5* UNL     1       2.579   4.623  -7.430  0.00  0.00    +0.214 C 
ATOM     19  O5* UNL     1       2.311   3.642  -6.609  0.00  0.00    -0.218 OA
ENDBRANCH  16  18
ENDBRANCH   5  11
BRANCH   1  21
ATOM     20  C   UNL     1       8.666   5.914 -11.782  0.00  0.00    +0.254 C 
ATOM     21  O   UNL     1       8.147   5.848 -11.580  0.00  0.00    -0.455 OA
ENDBRANCH   1  21
TORSDOF 3
ENDMDL
MODEL 4
REMARK VINA RESULT:      -6.5      6.885      8.801
REMARK  Name = 
REMARK  3 active torsions:
REMARK  status: ('A' for Active; 'I' for Inactive)
REMARK    1  A    between atoms: O_2  and  C_3
REMARK    2  A    between atoms: N_12  and  C1*_13
REMARK    3  A    between atoms: C4*_15  and  C5*_16
REMARK                            x       y       z     vdW  Elec       q    Type
REMARK                         _______ _______ _______ _____ _____    ______ ____
ROOT
ATOM      1  C   UNL     1       2.574   6.152  -1.732  0.00  0.00    +0.249 A 
ATOM      2  C   UNL     1       2.763   6.346  -3.075  0.00  0.00    +0.170 A 
ATOM      3  N   UNL     1       3.421   7.329  -3.699  0.00  0.00    -0.217 NA
ATOM      4  C   UNL     1       3.360   7.039  -4.964  0.00  0.00    +0.182 A 
ATOM      5  N   UNL     1       2.354   6.167  -5.282  0.00  0.00    -0.269 N 
ATOM      6  C   UNL     1       1.984   5.717  -4.047  0.00  0.00    +0.172 A 
ATOM      7  N   UNL     1       0.952   5.013  -3.570  0.00  0.00    -0.192 NA
ATOM      8  C   UNL     1       0.526   5.247  -2.296  0.00  0.00    +0.261 A 
ATOM      9  N   UNL     1      -0.874   5.268  -1.966  0.00  0.00    -0.086 NA
ATOM     10  N   UNL     1       1.396   5.658  -1.333  0.00  0.00    -0.175 NA
ENDROOT
BRANCH   5  11
ATOM     11  C1* UNL     1       2.822   4.939  -6.202  0.00  0.00    +0.241 C 
ATOM     12  C2* UNL     1       1.365   4.718  -7.062  0.00  0.00    +0.234 C 
ATOM     13  O2* UNL     1       0.675   6.022  -6.841  0.00  0.00    -0.216 OA
ATOM     14  C3* UNL     1       2.000   4.951  -8.605  0.00  0.00    +0.216 C 
ATOM     15  O3* UNL     1       3.130   3.991  -8.328  0.00  0.00    -0.218 OA
ATOM     16  C4* UNL     1       3.015   6.290  -8.310  0.00  0.00    +0.183 C 
ATOM     17  O4* UNL     1       3.585   5.805  -7.077  0.00  0.00    -0.331 OA
BRANCH  16  18
ATOM     18  C5* UNL     1       1.921   7.312  -7.646  0.00  0.00    +0.214 C 
ATOM     19  O5* UNL     1       2.135   8.573  -7.913  0.00  0.00    -0.218 OA
ENDBRANCH  16  18
ENDBRANCH   5  11
BRANCH   1  21
ATOM     20  C   UNL     1       3.989   6.171  -0.452  0.00  0.00    +0.254 C 
ATOM     21  O   UNL     1       3.700   6.274  -0.920  0.00  0.00    -0.455 OA
ENDBRANCH   1  21
TORSDOF 3
ENDMDL
MODEL 5
REMARK VINA RESULT:      -6.5      7.954     10.120
REMARK  Name = 
REMARK  3 active torsions:
REMARK  status: ('A' for Active; 'I' for Inactive)
REMARK    1  A    between atoms: O_2  and  C_3
REMARK    2  A    between atoms: N_12  and  C1*_13
REMARK    3  A    between atoms: C4*_15  and  C5*_16
REMARK                            x       y       z     vdW  Elec       q    Type
REMARK                         _______ _______ _______ _____ _____    ______ ____
ROOT
ATOM      1  C   UNL     1       0.774   6.291  -0.586  0.00  0.00    +0.249 A 
ATOM      2  C   UNL     1       0.873   6.014  -1.925  0.00  0.00    +0.170 A 
ATOM      3  N   UNL     1       0.125   5.196  -2.672  0.00  0.00    -0.217 NA
ATOM      4  C   UNL     1       0.581   5.319  -3.882  0.00  0.00    +0.182 A 
ATOM      5  N   UNL     1       1.848   5.832  -3.945  0.00  0.00    -0.269 N 
ATOM      6  C   UNL     1       2.020   6.289  -2.670  0.00  0.00    +0.172 A 
ATOM      7  N   UNL     1       3.064   6.721  -1.956  0.00  0.00    -0.192 NA
ATOM      8  C   UNL     1       3.072   6.516  -0.608  0.00  0.00    +0.261 A 
ATOM      9  N   UNL     1       4.274   6.137   0.086  0.00  0.00    -0.086 NA
ATOM     10  N   UNL     1       1.909   6.473   0.099  0.00  0.00    -0.175 NA
ENDROOT
BRANCH   5  11
ATOM     11  C1* UNL     1       2.013   7.035  -4.993  0.00  0.00    +0.241 C 
ATOM     12  C2* UNL     1       3.632   6.740  -5.441  0.00  0.00    +0.234 C 
ATOM     13  O2* UNL     1       3.820   5.326  -5.006  0.00  0.00    -0.216 OA
ATOM     14  C3* UNL     1       3.354   6.531  -7.090  0.00  0.00    +0.216 C 
ATOM     15  O3* UNL     1       2.536   7.796  -7.152  0.00  0.00    -0.218 OA
ATOM     16  C4* UNL     1       1.943   5.575  -7.035  0.00  0.00    +0.183 C 
ATOM     17  O4* UNL     1       1.263   6.332  -6.013  0.00  0.00    -0.331 OA
BRANCH  16  18
ATOM     18  C5* UNL     1       2.480   4.363  -6.074  0.00  0.00    +0.214 C 
ATOM     19  O5* UNL     1       1.946   3.199  -6.331  0.00  0.00    -0.218 OA
ENDBRANCH  16  18
ENDBRANCH   5  11
BRANCH   1  21
ATOM     20  C   UNL     1      -0.856   6.858   0.229  0.00  0.00    +0.254 C 
ATOM     21  O   UNL     1      -0.501   6.579  -0.102  0.00  0.00    -0.455 OA
ENDBRANCH   1  21
TORSDOF 3
ENDMDL
MODEL 6
REMARK VINA RESULT:      -6.4      6.408      8.827
REMARK  Name = 
REMARK  3 active torsions:
REMARK  status: ('A' for Active; 'I' for Inactive)
REMARK    1  A    between atoms: O_2  and  C_3
REMARK    2  A    between atoms: N_12  and  C1*_13
REMARK    3  A    between atoms: C4*_15  and  C5*_16
REMARK                            x       y       z     vdW  Elec       q    Type
REMARK                         _______ _______ _______ _____ _____    ______ ____
ROOT
ATOM      1  C   UNL     1      -1.838   5.488  -3.091  0.00  0.00    +0.249 A 
ATOM      2  C   UNL     1      -1.237   5.523  -4.321  0.00  0.00    +0.170 A 
ATOM      3  N   UNL     1      -1.666   5.017  -5.482  0.00  0.00    -0.217 NA
ATOM      4  C   UNL     1      -0.771   5.356  -6.360  0.00  0.00    +0.182 A 
ATOM      5  N   UNL     1       0.440   5.686  -5.815  0.00  0.00    -0.269 N 
ATOM      6  C   UNL     1       0.120   5.802  -4.493  0.00  0.00    +0.172 A 
ATOM      7  N   UNL     1       0.820   5.902  -3.358  0.00  0.00    -0.192 NA
ATOM      8  C   UNL     1       0.295   5.387  -2.210  0.00  0.00    +0.261 A 
ATOM      9  N   UNL     1       1.116   4.690  -1.257  0.00  0.00    -0.086 NA
ATOM     10  N   UNL     1      -1.053   5.343  -2.016  0.00  0.00    -0.175 NA
ENDROOT
BRANCH   5  11
ATOM     11  C1* UNL     1       1.047   7.067  -6.362  0.00  0.00    +0.241 C 
ATOM     12  C2* UNL     1       2.698   6.710  -6.127  0.00  0.00    +0.234 C 
ATOM     13  O2* UNL     1       2.679   5.223  -6.013  0.00  0.00    -0.216 OA
ATOM     14  C3* UNL     1       3.179   6.900  -7.731  0.00  0.00    +0.216 C 
ATOM     15  O3* UNL     1       2.467   8.226  -7.828  0.00  0.00    -0.218 OA
ATOM     16  C4* UNL     1       1.893   6.108  -8.523  0.00  0.00    +0.183 C 
ATOM     17  O4* UNL     1       0.827   6.688  -7.742  0.00  0.00    -0.331 OA
BRANCH  16  18
ATOM     18  C5* UNL     1       1.953   4.664  -7.752  0.00  0.00    +0.214 C 
ATOM     19  O5* UNL     1       2.307   3.664  -8.515  0.00  0.00    -0.218 OA
ENDBRANCH  16  18
ENDBRANCH   5  11
BRANCH   1  21
ATOM     20  C   UNL     1      -3.618   6.136  -2.857  0.00  0.00    +0.254 C 
ATOM     21  O   UNL     1      -3.188   5.831  -3.047  0.00  0.00    -0.455 OA
ENDBRANCH   1  21
TORSDOF 3
ENDMDL
MODEL 7
REMARK VINA RESULT:      -6.4      2.827      4.601
REMARK  Name = 
REMARK  3 active torsions:
REMARK  status: ('A' for Active; 'I' for Inactive)
REMARK    1  A    between atoms: O_2  and  C_3
REMARK    2  A    between atoms: N_12  and  C1*_13
REMARK    3  A    between atoms: C4*_15  and  C5*_16
REMARK                            x       y       z     vdW  Elec       q    Type
REMARK                         _______ _______ _______ _____ _____    ______ ____
ROOT
ATOM      1  C   UNL     1       1.832   6.161 -14.118  0.00  0.00    +0.249 A 
ATOM      2  C   UNL     1       1.693   6.258 -12.758  0.00  0.00    +0.170 A 
ATOM      3  N   UNL     1       0.843   7.009 -12.051  0.00  0.00    -0.217 NA
ATOM      4  C   UNL     1       1.068   6.709 -10.807  0.00  0.00    +0.182 A 
ATOM      5  N   UNL     1       2.288   6.129 -10.591  0.00  0.00    -0.269 N 
ATOM      6  C   UNL     1       2.677   5.831 -11.865  0.00  0.00    +0.172 A 
ATOM      7  N   UNL     1       3.822   5.444 -12.436  0.00  0.00    -0.192 NA
ATOM      8  C   UNL     1       4.081   5.821 -13.720  0.00  0.00    +0.261 A 
ATOM      9  N   UNL     1       5.398   6.225 -14.132  0.00  0.00    -0.086 NA
ATOM     10  N   UNL     1       3.068   6.012 -14.610  0.00  0.00    -0.175 NA
ENDROOT
BRANCH   5  11
ATOM     11  C1* UNL     1       2.228   4.793  -9.704  0.00  0.00    +0.241 C 
ATOM     12  C2* UNL     1       3.761   4.928  -8.968  0.00  0.00    +0.234 C 
ATOM     13  O2* UNL     1       4.075   6.371  -9.171  0.00  0.00    -0.216 OA
ATOM     14  C3* UNL     1       3.222   4.941  -7.372  0.00  0.00    +0.216 C 
ATOM     15  O3* UNL     1       2.353   3.732  -7.614  0.00  0.00    -0.218 OA
ATOM     16  C4* UNL     1       1.879   5.982  -7.519  0.00  0.00    +0.183 C 
ATOM     17  O4* UNL     1       1.347   5.405  -8.730  0.00  0.00    -0.331 OA
BRANCH  16  18
ATOM     18  C5* UNL     1       2.617   7.271  -8.209  0.00  0.00    +0.214 C 
ATOM     19  O5* UNL     1       2.115   8.426  -7.859  0.00  0.00    -0.218 OA
ENDBRANCH  16  18
ENDBRANCH   5  11
BRANCH   1  21
ATOM     20  C   UNL     1       0.282   6.172 -15.232  0.00  0.00    +0.254 C 
ATOM     21  O   UNL     1       0.660   6.002 -14.855  0.00  0.00    -0.455 OA
ENDBRANCH   1  21
TORSDOF 3
ENDMDL
MODEL 8
REMARK VINA RESULT:      -6.4      2.459      5.134
REMARK  Name = 
REMARK  3 active torsions:
REMARK  status: ('A' for Active; 'I' for Inactive)
REMARK    1  A    between atoms: O_2  and  C_3
REMARK    2  A    between atoms: N_12  and  C1*_13
REMARK    3  A    between atoms: C4*_15  and  C5*_16
REMARK                            x       y       z     vdW  Elec       q    Type
REMARK                         _______ _______ _______ _____ _____    ______ ____
ROOT
ATOM      1  C   UNL     1       4.433   5.804 -13.929  0.00  0.00    +0.249 A 
ATOM      2  C   UNL     1       4.274   5.724 -12.570  0.00  0.00    +0.170 A 
ATOM      3  N   UNL     1       5.029   5.086 -11.670  0.00  0.00    -0.217 NA
ATOM      4  C   UNL     1       4.495   5.355 -10.517  0.00  0.00    +0.182 A 
ATOM      5  N   UNL     1       3.195   5.775 -10.596  0.00  0.00    -0.269 N 
ATOM      6  C   UNL     1       3.069   6.022 -11.932  0.00  0.00    +0.172 A 
ATOM      7  N   UNL     1       2.043   6.262 -12.754  0.00  0.00    -0.192 NA
ATOM      8  C   UNL     1       2.128   5.857 -14.054  0.00  0.00    +0.261 A 
ATOM      9  N   UNL     1       0.998   5.289 -14.738  0.00  0.00    -0.086 NA
ATOM     10  N   UNL     1       3.332   5.795 -14.689  0.00  0.00    -0.175 NA
ENDROOT
BRANCH   5  11
ATOM     11  C1* UNL     1       2.888   7.107  -9.754  0.00  0.00    +0.241 C 
ATOM     12  C2* UNL     1       1.260   6.775  -9.369  0.00  0.00    +0.234 C 
ATOM     13  O2* UNL     1       1.183   5.303  -9.595  0.00  0.00    -0.216 OA
ATOM     14  C3* UNL     1       1.431   6.831  -7.694  0.00  0.00    +0.216 C 
ATOM     15  O3* UNL     1       2.171   8.142  -7.773  0.00  0.00    -0.218 OA
ATOM     16  C4* UNL     1       2.893   5.972  -7.514  0.00  0.00    +0.183 C 
ATOM     17  O4* UNL     1       3.602   6.613  -8.595  0.00  0.00    -0.331 OA
BRANCH  16  18
ATOM     18  C5* UNL     1       2.495   4.598  -8.312  0.00  0.00    +0.214 C 
ATOM     19  O5* UNL     1       2.481   3.529  -7.563  0.00  0.00    -0.218 OA
ENDBRANCH  16  18
ENDBRANCH   5  11
BRANCH   1  21
ATOM     20  C   UNL     1       6.070   6.398 -14.711  0.00  0.00    +0.254 C 
ATOM     21  O   UNL     1       5.713   6.110 -14.389  0.00  0.00    -0.455 OA
ENDBRANCH   1  21
TORSDOF 3
ENDMDL
MODEL 9
REMARK VINA RESULT:      -6.3      8.601     10.505
REMARK  Name = 
REMARK  3 active torsions:
REMARK  status: ('A' for Active; 'I' for Inactive)
REMARK    1  A    between atoms: O_2  and  C_3
REMARK    2  A    between atoms: N_12  and  C1*_13
REMARK    3  A    between atoms: C4*_15  and  C5*_16
REMARK                            x       y       z     vdW  Elec       q    Type
REMARK                         _______ _______ _______ _____ _____    ______ ____
ROOT
ATOM      1  C   UNL     1      -0.660   5.452  -5.200  0.00  0.00    +0.249 A 
ATOM      2  C   UNL     1       0.517   5.529  -4.503  0.00  0.00    +0.170 A 
ATOM      3  N   UNL     1       1.703   4.982  -4.791  0.00  0.00    -0.217 NA
ATOM      4  C   UNL     1       2.507   5.387  -3.856  0.00  0.00    +0.182 A 
ATOM      5  N   UNL     1       1.867   5.818  -2.726  0.00  0.00    -0.269 N 
ATOM      6  C   UNL     1       0.578   5.916  -3.164  0.00  0.00    +0.172 A 
ATOM      7  N   UNL     1      -0.609   6.080  -2.572  0.00  0.00    -0.192 NA
ATOM      8  C   UNL     1      -1.716   5.530  -3.149  0.00  0.00    +0.261 A 
ATOM      9  N   UNL     1      -2.743   4.909  -2.357  0.00  0.00    -0.086 NA
ATOM     10  N   UNL     1      -1.798   5.378  -4.499  0.00  0.00    -0.175 NA
ENDROOT
BRANCH   5  11
ATOM     11  C1* UNL     1       2.380   7.241  -2.188  0.00  0.00    +0.241 C 
ATOM     12  C2* UNL     1       2.053   7.000  -0.532  0.00  0.00    +0.234 C 
ATOM     13  O2* UNL     1       1.939   5.515  -0.451  0.00  0.00    -0.216 OA
ATOM     14  C3* UNL     1       3.627   7.229   0.024  0.00  0.00    +0.216 C 
ATOM     15  O3* UNL     1       3.765   8.502  -0.774  0.00  0.00    -0.218 OA
ATOM     16  C4* UNL     1       4.490   6.352  -1.157  0.00  0.00    +0.183 C 
ATOM     17  O4* UNL     1       3.771   6.852  -2.303  0.00  0.00    -0.331 OA
BRANCH  16  18
ATOM     18  C5* UNL     1       3.716   4.913  -1.037  0.00  0.00    +0.214 C 
ATOM     19  O5* UNL     1       4.492   3.913  -0.716  0.00  0.00    -0.218 OA
ENDBRANCH  16  18
ENDBRANCH   5  11
BRANCH   1  21
ATOM     20  C   UNL     1      -0.688   5.547  -7.107  0.00  0.00    +0.254 C 
ATOM     21  O   UNL     1      -0.587   5.684  -6.573  0.00  0.00    -0.455 OA
ENDBRANCH   1  21
TORSDOF 3
ENDMDL
