MODEL 1
REMARK VINA RESULT:      -8.1      0.000      0.000
REMARK  Name = 
REMARK  5 active torsions:
REMARK  status: ('A' for Active; 'I' for Inactive)
REMARK    1  A    between atoms: N_2  and  S_3
REMARK    2  A    between atoms: S_3  and  C_6
REMARK    3  A    between atoms: C_6  and  C_7
REMARK    4  A    between atoms: C_7  and  C_8
REMARK    5  A    between atoms: C_14  and  C_15
REMARK                            x       y       z     vdW  Elec       q    Type
REMARK                         _______ _______ _______ _____ _____    ______ ____
ROOT
ATOM      1  C   UNL     1       5.446   6.023  -9.856  0.00  0.00    -0.020 A 
ATOM      2  C   UNL     1       5.445   5.750  -8.498  0.00  0.00    -0.003 A 
ATOM      3  C   UNL     1       4.208   5.588  -7.896  0.00  0.00    +0.015 A 
ATOM      4  C   UNL     1       3.073   5.412  -8.650  0.00  0.00    +0.081 A 
ATOM      5  N   UNL     1       2.173   4.717  -7.909  0.00  0.00    -0.244 NA
ATOM      6  C   UNL     1       2.632   4.671  -6.649  0.00  0.00    +0.095 A 
ATOM      7  C   UNL     1       3.056   5.852  -9.951  0.00  0.00    +0.019 A 
ATOM      8  C   UNL     1       3.797   5.423  -6.580  0.00  0.00    -0.002 A 
ATOM      9  C   UNL     1       4.246   6.308 -10.496  0.00  0.00    -0.003 A 
ENDROOT
BRANCH   8  10
ATOM     10  C   UNL     1       4.604   5.649  -5.363  0.00  0.00    +0.027 C 
ATOM     11  C   UNL     1       4.459   7.046  -4.813  0.00  0.00    +0.022 C 
ATOM     12  C   UNL     1       3.252   7.226  -3.942  0.00  0.00    +0.072 C 
ATOM     13  N   UNL     1       3.109   6.236  -2.915  0.00  0.00    -0.271 NA
ATOM     14  C   UNL     1       1.753   5.790  -2.717  0.00  0.00    +0.090 C 
ATOM     15  C   UNL     1       4.066   5.168  -2.977  0.00  0.00    +0.072 C 
ATOM     16  C   UNL     1       4.249   4.591  -4.349  0.00  0.00    +0.022 C 
ENDBRANCH   8  10
BRANCH   1  17
ATOM     17  C   UNL     1       6.730   6.149 -10.612  0.00  0.00    +0.053 C 
BRANCH  17  18
ATOM     18  C   UNL     1       6.402   6.678 -11.982  0.00  0.00    +0.175 C 
BRANCH  18  19
ATOM     19  S   UNL     1       6.580   5.477 -13.257  0.00  0.00    +0.058 S 
ATOM     20  O   UNL     1       5.345   4.651 -13.456  0.00  0.00    -0.156 OA
ATOM     21  O   UNL     1       7.732   4.576 -12.878  0.00  0.00    -0.156 OA
BRANCH  19  23
ATOM     22  C   UNL     1       6.333   7.443 -15.003  0.00  0.00    +0.136 C 
ATOM     23  N   UNL     1       7.011   6.188 -14.778  0.00  0.00    -0.080 NA
ENDBRANCH  19  23
ENDBRANCH  18  19
ENDBRANCH  17  18
ENDBRANCH   1  17
TORSDOF 5
ENDMDL
MODEL 2
REMARK VINA RESULT:      -7.9      1.264      1.410
REMARK  Name = 
REMARK  5 active torsions:
REMARK  status: ('A' for Active; 'I' for Inactive)
REMARK    1  A    between atoms: N_2  and  S_3
REMARK    2  A    between atoms: S_3  and  C_6
REMARK    3  A    between atoms: C_6  and  C_7
REMARK    4  A    between atoms: C_7  and  C_8
REMARK    5  A    between atoms: C_14  and  C_15
REMARK                            x       y       z     vdW  Elec       q    Type
REMARK                         _______ _______ _______ _____ _____    ______ ____
ROOT
ATOM      1  C   UNL     1       4.894   5.640  -9.401  0.00  0.00    -0.020 A 
ATOM      2  C   UNL     1       5.046   5.512  -8.030  0.00  0.00    -0.003 A 
ATOM      3  C   UNL     1       3.898   5.263  -7.297  0.00  0.00    +0.015 A 
ATOM      4  C   UNL     1       2.736   4.871  -7.915  0.00  0.00    +0.081 A 
ATOM      5  N   UNL     1       2.002   4.152  -7.029  0.00  0.00    -0.244 NA
ATOM      6  C   UNL     1       2.570   4.295  -5.821  0.00  0.00    +0.095 A 
ATOM      7  C   UNL     1       2.549   5.167  -9.244  0.00  0.00    +0.019 A 
ATOM      8  C   UNL     1       3.627   5.187  -5.937  0.00  0.00    -0.002 A 
ATOM      9  C   UNL     1       3.617   5.706  -9.943  0.00  0.00    -0.003 A 
ENDROOT
BRANCH   8  10
ATOM     10  C   UNL     1       4.499   5.636  -4.832  0.00  0.00    +0.027 C 
ATOM     11  C   UNL     1       4.334   7.102  -4.513  0.00  0.00    +0.022 C 
ATOM     12  C   UNL     1       3.179   7.392  -3.604  0.00  0.00    +0.072 C 
ATOM     13  N   UNL     1       3.138   6.585  -2.419  0.00  0.00    -0.271 NA
ATOM     14  C   UNL     1       1.815   6.141  -2.059  0.00  0.00    +0.090 C 
ATOM     15  C   UNL     1       4.129   5.548  -2.368  0.00  0.00    +0.072 C 
ATOM     16  C   UNL     1       4.249   4.754  -3.635  0.00  0.00    +0.022 C 
ENDBRANCH   8  10
BRANCH   1  17
ATOM     17  C   UNL     1       6.081   5.842 -10.289  0.00  0.00    +0.053 C 
BRANCH  17  18
ATOM     18  C   UNL     1       5.590   6.461 -11.570  0.00  0.00    +0.175 C 
BRANCH  18  19
ATOM     19  S   UNL     1       6.241   5.689 -13.013  0.00  0.00    +0.058 S 
ATOM     20  O   UNL     1       6.466   6.655 -14.138  0.00  0.00    -0.156 OA
ATOM     21  O   UNL     1       5.256   4.630 -13.448  0.00  0.00    -0.156 OA
BRANCH  19  23
ATOM     22  C   UNL     1       8.829   5.771 -12.491  0.00  0.00    +0.136 C 
ATOM     23  N   UNL     1       7.730   4.858 -12.703  0.00  0.00    -0.080 NA
ENDBRANCH  19  23
ENDBRANCH  18  19
ENDBRANCH  17  18
ENDBRANCH   1  17
TORSDOF 5
ENDMDL
MODEL 3
REMARK VINA RESULT:      -7.8      6.090      9.749
REMARK  Name = 
REMARK  5 active torsions:
REMARK  status: ('A' for Active; 'I' for Inactive)
REMARK    1  A    between atoms: N_2  and  S_3
REMARK    2  A    between atoms: S_3  and  C_6
REMARK    3  A    between atoms: C_6  and  C_7
REMARK    4  A    between atoms: C_7  and  C_8
REMARK    5  A    between atoms: C_14  and  C_15
REMARK                            x       y       z     vdW  Elec       q    Type
REMARK                         _______ _______ _______ _____ _____    ______ ____
ROOT
ATOM      1  C   UNL     1      -1.038   5.888  -6.016  0.00  0.00    -0.020 A 
ATOM      2  C   UNL     1      -0.967   5.527  -7.351  0.00  0.00    -0.003 A 
ATOM      3  C   UNL     1       0.284   5.573  -7.943  0.00  0.00    +0.015 A 
ATOM      4  C   UNL     1       1.423   5.678  -7.182  0.00  0.00    +0.081 A 
ATOM      5  N   UNL     1       2.451   5.127  -7.874  0.00  0.00    -0.244 NA
ATOM      6  C   UNL     1       2.025   4.904  -9.126  0.00  0.00    +0.095 A 
ATOM      7  C   UNL     1       1.337   6.202  -5.914  0.00  0.00    +0.019 A 
ATOM      8  C   UNL     1       0.735   5.402  -9.245  0.00  0.00    -0.002 A 
ATOM      9  C   UNL     1       0.073   6.448  -5.400  0.00  0.00    -0.003 A 
ENDROOT
BRANCH   8  10
ATOM     10  C   UNL     1      -0.087   5.379 -10.473  0.00  0.00    +0.027 C 
ATOM     11  C   UNL     1      -0.150   6.719 -11.164  0.00  0.00    +0.022 C 
ATOM     12  C   UNL     1       1.023   6.989 -12.057  0.00  0.00    +0.072 C 
ATOM     13  N   UNL     1       1.322   5.933 -12.979  0.00  0.00    -0.271 NA
ATOM     14  C   UNL     1       2.731   5.679 -13.141  0.00  0.00    +0.090 C 
ATOM     15  C   UNL     1       0.537   4.745 -12.802  0.00  0.00    +0.072 C 
ATOM     16  C   UNL     1       0.432   4.289 -11.377  0.00  0.00    +0.022 C 
ENDBRANCH   8  10
BRANCH   1  17
ATOM     17  C   UNL     1      -2.331   5.808  -5.267  0.00  0.00    +0.053 C 
BRANCH  17  18
ATOM     18  C   UNL     1      -2.270   6.810  -4.146  0.00  0.00    +0.175 C 
BRANCH  18  19
ATOM     19  S   UNL     1      -2.850   6.175  -2.609  0.00  0.00    +0.058 S 
ATOM     20  O   UNL     1      -2.755   4.682  -2.522  0.00  0.00    -0.156 OA
ATOM     21  O   UNL     1      -4.291   6.598  -2.455  0.00  0.00    -0.156 OA
BRANCH  19  23
ATOM     22  C   UNL     1      -0.897   6.029  -0.835  0.00  0.00    +0.136 C 
ATOM     23  N   UNL     1      -2.007   6.854  -1.255  0.00  0.00    -0.080 NA
ENDBRANCH  19  23
ENDBRANCH  18  19
ENDBRANCH  17  18
ENDBRANCH   1  17
TORSDOF 5
ENDMDL
MODEL 4
REMARK VINA RESULT:      -7.5      1.538      1.748
REMARK  Name = 
REMARK  5 active torsions:
REMARK  status: ('A' for Active; 'I' for Inactive)
REMARK    1  A    between atoms: N_2  and  S_3
REMARK    2  A    between atoms: S_3  and  C_6
REMARK    3  A    between atoms: C_6  and  C_7
REMARK    4  A    between atoms: C_7  and  C_8
REMARK    5  A    between atoms: C_14  and  C_15
REMARK                            x       y       z     vdW  Elec       q    Type
REMARK                         _______ _______ _______ _____ _____    ______ ____
ROOT
ATOM      1  C   UNL     1       3.675   6.419  -9.557  0.00  0.00    -0.020 A 
ATOM      2  C   UNL     1       4.124   6.090  -8.288  0.00  0.00    -0.003 A 
ATOM      3  C   UNL     1       3.169   5.660  -7.383  0.00  0.00    +0.015 A 
ATOM      4  C   UNL     1       1.911   5.297  -7.799  0.00  0.00    +0.081 A 
ATOM      5  N   UNL     1       1.407   4.406  -6.909  0.00  0.00    -0.244 NA
ATOM      6  C   UNL     1       2.219   4.395  -5.841  0.00  0.00    +0.095 A 
ATOM      7  C   UNL     1       1.433   5.784  -8.992  0.00  0.00    +0.019 A 
ATOM      8  C   UNL     1       3.202   5.357  -6.027  0.00  0.00    -0.002 A 
ATOM      9  C   UNL     1       2.310   6.489  -9.801  0.00  0.00    -0.003 A 
ENDROOT
BRANCH   8  10
ATOM     10  C   UNL     1       4.279   5.683  -5.071  0.00  0.00    +0.027 C 
ATOM     11  C   UNL     1       4.275   7.133  -4.652  0.00  0.00    +0.022 C 
ATOM     12  C   UNL     1       3.316   7.433  -3.540  0.00  0.00    +0.072 C 
ATOM     13  N   UNL     1       3.423   6.556  -2.410  0.00  0.00    -0.271 NA
ATOM     14  C   UNL     1       2.155   6.171  -1.846  0.00  0.00    +0.090 C 
ATOM     15  C   UNL     1       4.334   5.462  -2.588  0.00  0.00    +0.072 C 
ATOM     16  C   UNL     1       4.178   4.743  -3.896  0.00  0.00    +0.022 C 
ENDBRANCH   8  10
BRANCH   1  17
ATOM     17  C   UNL     1       4.635   6.829 -10.628  0.00  0.00    +0.053 C 
BRANCH  17  18
ATOM     18  C   UNL     1       5.277   5.580 -11.167  0.00  0.00    +0.175 C 
BRANCH  18  19
ATOM     19  S   UNL     1       7.012   5.739 -11.423  0.00  0.00    +0.058 S 
ATOM     20  O   UNL     1       7.819   5.275 -10.249  0.00  0.00    -0.156 OA
ATOM     21  O   UNL     1       7.302   7.197 -11.689  0.00  0.00    -0.156 OA
BRANCH  19  23
ATOM     22  C   UNL     1       7.109   5.508 -14.053  0.00  0.00    +0.136 C 
ATOM     23  N   UNL     1       7.553   4.882 -12.829  0.00  0.00    -0.080 NA
ENDBRANCH  19  23
ENDBRANCH  18  19
ENDBRANCH  17  18
ENDBRANCH   1  17
TORSDOF 5
ENDMDL
MODEL 5
REMARK VINA RESULT:      -7.5      3.673      5.719
REMARK  Name = 
REMARK  5 active torsions:
REMARK  status: ('A' for Active; 'I' for Inactive)
REMARK    1  A    between atoms: N_2  and  S_3
REMARK    2  A    between atoms: S_3  and  C_6
REMARK    3  A    between atoms: C_6  and  C_7
REMARK    4  A    between atoms: C_7  and  C_8
REMARK    5  A    between atoms: C_14  and  C_15
REMARK                            x       y       z     vdW  Elec       q    Type
REMARK                         _______ _______ _______ _____ _____    ______ ____
ROOT
ATOM      1  C   UNL     1      -0.222   5.667  -6.072  0.00  0.00    -0.020 A 
ATOM      2  C   UNL     1       0.824   5.407  -5.203  0.00  0.00    -0.003 A 
ATOM      3  C   UNL     1       0.553   5.525  -3.850  0.00  0.00    +0.015 A 
ATOM      4  C   UNL     1      -0.739   5.601  -3.391  0.00  0.00    +0.081 A 
ATOM      5  N   UNL     1      -0.770   5.126  -2.121  0.00  0.00    -0.244 NA
ATOM      6  C   UNL     1       0.499   4.985  -1.709  0.00  0.00    +0.095 A 
ATOM      7  C   UNL     1      -1.729   6.030  -4.243  0.00  0.00    +0.019 A 
ATOM      8  C   UNL     1       1.339   5.460  -2.707  0.00  0.00    -0.002 A 
ATOM      9  C   UNL     1      -1.402   6.208  -5.578  0.00  0.00    -0.003 A 
ENDROOT
BRANCH   8  10
ATOM     10  C   UNL     1       2.814   5.506  -2.639  0.00  0.00    +0.027 C 
ATOM     11  C   UNL     1       3.374   6.870  -2.959  0.00  0.00    +0.022 C 
ATOM     12  C   UNL     1       3.378   7.806  -1.789  0.00  0.00    +0.072 C 
ATOM     13  N   UNL     1       3.958   7.263  -0.595  0.00  0.00    -0.271 NA
ATOM     14  C   UNL     1       3.246   7.605   0.610  0.00  0.00    +0.090 C 
ATOM     15  C   UNL     1       4.314   5.876  -0.682  0.00  0.00    +0.072 C 
ATOM     16  C   UNL     1       3.248   5.008  -1.284  0.00  0.00    +0.022 C 
ENDBRANCH   8  10
BRANCH   1  17
ATOM     17  C   UNL     1      -0.052   5.502  -7.549  0.00  0.00    +0.053 C 
BRANCH  17  18
ATOM     18  C   UNL     1       1.424   5.491  -7.839  0.00  0.00    +0.175 C 
BRANCH  18  19
ATOM     19  S   UNL     1       1.981   6.931  -8.687  0.00  0.00    +0.058 S 
ATOM     20  O   UNL     1       2.039   8.141  -7.804  0.00  0.00    -0.156 OA
ATOM     21  O   UNL     1       1.027   7.186  -9.829  0.00  0.00    -0.156 OA
BRANCH  19  23
ATOM     22  C   UNL     1       3.699   5.386  -9.968  0.00  0.00    +0.136 C 
ATOM     23  N   UNL     1       3.541   6.709  -9.410  0.00  0.00    -0.080 NA
ENDBRANCH  19  23
ENDBRANCH  18  19
ENDBRANCH  17  18
ENDBRANCH   1  17
TORSDOF 5
ENDMDL
MODEL 6
REMARK VINA RESULT:      -7.4      5.662      9.202
REMARK  Name = 
REMARK  5 active torsions:
REMARK  status: ('A' for Active; 'I' for Inactive)
REMARK    1  A    between atoms: N_2  and  S_3
REMARK    2  A    between atoms: S_3  and  C_6
REMARK    3  A    between atoms: C_6  and  C_7
REMARK    4  A    between atoms: C_7  and  C_8
REMARK    5  A    between atoms: C_14  and  C_15
REMARK                            x       y       z     vdW  Elec       q    Type
REMARK                         _______ _______ _______ _____ _____    ______ ____
ROOT
ATOM      1  C   UNL     1       1.213   5.809  -5.756  0.00  0.00    -0.020 A 
ATOM      2  C   UNL     1       0.844   5.572  -7.069  0.00  0.00    -0.003 A 
ATOM      3  C   UNL     1       1.598   6.194  -8.050  0.00  0.00    +0.015 A 
ATOM      4  C   UNL     1       2.812   6.764  -7.753  0.00  0.00    +0.081 A 
ATOM      5  N   UNL     1       3.573   6.757  -8.876  0.00  0.00    -0.244 NA
ATOM      6  C   UNL     1       2.778   6.418  -9.903  0.00  0.00    +0.095 A 
ATOM      7  C   UNL     1       3.077   7.144  -6.459  0.00  0.00    +0.019 A 
ATOM      8  C   UNL     1       1.479   6.294  -9.430  0.00  0.00    -0.002 A 
ATOM      9  C   UNL     1       2.166   6.781  -5.479  0.00  0.00    -0.003 A 
ENDROOT
BRANCH   8  10
ATOM     10  C   UNL     1       0.295   5.957 -10.246  0.00  0.00    +0.027 C 
ATOM     11  C   UNL     1      -0.094   7.059 -11.201  0.00  0.00    +0.022 C 
ATOM     12  C   UNL     1       0.684   7.046 -12.481  0.00  0.00    +0.072 C 
ATOM     13  N   UNL     1       0.729   5.772 -13.136  0.00  0.00    -0.271 NA
ATOM     14  C   UNL     1       2.015   5.449 -13.700  0.00  0.00    +0.090 C 
ATOM     15  C   UNL     1       0.138   4.696 -12.391  0.00  0.00    +0.072 C 
ATOM     16  C   UNL     1       0.555   4.649 -10.951  0.00  0.00    +0.022 C 
ENDBRANCH   8  10
BRANCH   1  17
ATOM     17  C   UNL     1       0.505   5.132  -4.625  0.00  0.00    +0.053 C 
BRANCH  17  18
ATOM     18  C   UNL     1      -0.425   6.137  -4.003  0.00  0.00    +0.175 C 
BRANCH  18  19
ATOM     19  S   UNL     1      -0.952   5.693  -2.382  0.00  0.00    +0.058 S 
ATOM     20  O   UNL     1      -0.966   6.856  -1.435  0.00  0.00    -0.156 OA
ATOM     21  O   UNL     1      -0.003   4.637  -1.867  0.00  0.00    -0.156 OA
BRANCH  19  23
ATOM     22  C   UNL     1      -3.542   5.862  -2.873  0.00  0.00    +0.136 C 
ATOM     23  N   UNL     1      -2.525   4.965  -2.375  0.00  0.00    -0.080 NA
ENDBRANCH  19  23
ENDBRANCH  18  19
ENDBRANCH  17  18
ENDBRANCH   1  17
TORSDOF 5
ENDMDL
MODEL 7
REMARK VINA RESULT:      -7.2      6.688     10.220
REMARK  Name = 
REMARK  5 active torsions:
REMARK  status: ('A' for Active; 'I' for Inactive)
REMARK    1  A    between atoms: N_2  and  S_3
REMARK    2  A    between atoms: S_3  and  C_6
REMARK    3  A    between atoms: C_6  and  C_7
REMARK    4  A    between atoms: C_7  and  C_8
REMARK    5  A    between atoms: C_14  and  C_15
REMARK                            x       y       z     vdW  Elec       q    Type
REMARK                         _______ _______ _______ _____ _____    ______ ____
ROOT
ATOM      1  C   UNL     1      -2.033   6.637  -2.341  0.00  0.00    -0.020 A 
ATOM      2  C   UNL     1      -0.989   6.739  -3.246  0.00  0.00    -0.003 A 
ATOM      3  C   UNL     1      -1.124   6.039  -4.433  0.00  0.00    +0.015 A 
ATOM      4  C   UNL     1      -2.338   5.522  -4.815  0.00  0.00    +0.081 A 
ATOM      5  N   UNL     1      -2.358   5.435  -6.169  0.00  0.00    -0.244 NA
ATOM      6  C   UNL     1      -1.110   5.658  -6.609  0.00  0.00    +0.095 A 
ATOM      7  C   UNL     1      -3.294   5.275  -3.859  0.00  0.00    +0.019 A 
ATOM      8  C   UNL     1      -0.277   5.803  -5.508  0.00  0.00    -0.002 A 
ATOM      9  C   UNL     1      -3.046   5.715  -2.568  0.00  0.00    -0.003 A 
ENDROOT
BRANCH   8  10
ATOM     10  C   UNL     1       1.181   6.038  -5.557  0.00  0.00    +0.027 C 
ATOM     11  C   UNL     1       1.986   4.778  -5.352  0.00  0.00    +0.022 C 
ATOM     12  C   UNL     1       2.161   3.968  -6.600  0.00  0.00    +0.072 C 
ATOM     13  N   UNL     1       2.628   4.715  -7.732  0.00  0.00    -0.271 NA
ATOM     14  C   UNL     1       1.989   4.355  -8.973  0.00  0.00    +0.090 C 
ATOM     15  C   UNL     1       2.719   6.131  -7.517  0.00  0.00    +0.072 C 
ATOM     16  C   UNL     1       1.512   6.728  -6.857  0.00  0.00    +0.022 C 
ENDBRANCH   8  10
BRANCH   1  17
ATOM     17  C   UNL     1      -2.015   7.408  -1.059  0.00  0.00    +0.053 C 
BRANCH  17  18
ATOM     18  C   UNL     1      -1.374   6.537  -0.013  0.00  0.00    +0.175 C 
BRANCH  18  19
ATOM     19  S   UNL     1      -0.110   7.356   0.901  0.00  0.00    +0.058 S 
ATOM     20  O   UNL     1       1.267   6.884   0.542  0.00  0.00    -0.156 OA
ATOM     21  O   UNL     1      -0.366   7.096   2.366  0.00  0.00    -0.156 OA
BRANCH  19  23
ATOM     22  C   UNL     1       1.096   9.702   1.036  0.00  0.00    +0.136 C 
ATOM     23  N   UNL     1      -0.164   9.077   0.705  0.00  0.00    -0.080 NA
ENDBRANCH  19  23
ENDBRANCH  18  19
ENDBRANCH  17  18
ENDBRANCH   1  17
TORSDOF 5
ENDMDL
MODEL 8
REMARK VINA RESULT:      -7.2      2.248      3.092
REMARK  Name = 
REMARK  5 active torsions:
REMARK  status: ('A' for Active; 'I' for Inactive)
REMARK    1  A    between atoms: N_2  and  S_3
REMARK    2  A    between atoms: S_3  and  C_6
REMARK    3  A    between atoms: C_6  and  C_7
REMARK    4  A    between atoms: C_7  and  C_8
REMARK    5  A    between atoms: C_14  and  C_15
REMARK                            x       y       z     vdW  Elec       q    Type
REMARK                         _______ _______ _______ _____ _____    ______ ____
ROOT
ATOM      1  C   UNL     1       4.633   6.411  -9.818  0.00  0.00    -0.020 A 
ATOM      2  C   UNL     1       3.545   6.778  -9.043  0.00  0.00    -0.003 A 
ATOM      3  C   UNL     1       3.479   6.242  -7.769  0.00  0.00    +0.015 A 
ATOM      4  C   UNL     1       4.569   5.627  -7.202  0.00  0.00    +0.081 A 
ATOM      5  N   UNL     1       4.465   5.730  -5.853  0.00  0.00    -0.244 NA
ATOM      6  C   UNL     1       3.231   6.178  -5.575  0.00  0.00    +0.095 A 
ATOM      7  C   UNL     1       5.553   5.121  -8.017  0.00  0.00    +0.019 A 
ATOM      8  C   UNL     1       2.521   6.276  -6.763  0.00  0.00    -0.002 A 
ATOM      9  C   UNL     1       5.479   5.403  -9.372  0.00  0.00    -0.003 A 
ENDROOT
BRANCH   8  10
ATOM     10  C   UNL     1       1.114   6.708  -6.892  0.00  0.00    +0.027 C 
ATOM     11  C   UNL     1       0.169   5.562  -7.157  0.00  0.00    +0.022 C 
ATOM     12  C   UNL     1      -0.257   4.838  -5.917  0.00  0.00    +0.072 C 
ATOM     13  N   UNL     1      -0.740   5.689  -4.868  0.00  0.00    -0.271 NA
ATOM     14  C   UNL     1      -0.302   5.301  -3.551  0.00  0.00    +0.090 C 
ATOM     15  C   UNL     1      -0.608   7.094  -5.131  0.00  0.00    +0.072 C 
ATOM     16  C   UNL     1       0.738   7.492  -5.660  0.00  0.00    +0.022 C 
ENDBRANCH   8  10
BRANCH   1  17
ATOM     17  C   UNL     1       4.833   6.988 -11.183  0.00  0.00    +0.053 C 
BRANCH  17  18
ATOM     18  C   UNL     1       6.231   6.644 -11.622  0.00  0.00    +0.175 C 
BRANCH  18  19
ATOM     19  S   UNL     1       6.285   5.694 -13.104  0.00  0.00    +0.058 S 
ATOM     20  O   UNL     1       7.475   4.785 -13.170  0.00  0.00    -0.156 OA
ATOM     21  O   UNL     1       6.325   6.661 -14.264  0.00  0.00    -0.156 OA
BRANCH  19  23
ATOM     22  C   UNL     1       3.864   5.423 -14.126  0.00  0.00    +0.136 C 
ATOM     23  N   UNL     1       4.856   4.739 -13.329  0.00  0.00    -0.080 NA
ENDBRANCH  19  23
ENDBRANCH  18  19
ENDBRANCH  17  18
ENDBRANCH   1  17
TORSDOF 5
ENDMDL
MODEL 9
REMARK VINA RESULT:      -7.2      2.916      4.722
REMARK  Name = 
REMARK  5 active torsions:
REMARK  status: ('A' for Active; 'I' for Inactive)
REMARK    1  A    between atoms: N_2  and  S_3
REMARK    2  A    between atoms: S_3  and  C_6
REMARK    3  A    between atoms: C_6  and  C_7
REMARK    4  A    between atoms: C_7  and  C_8
REMARK    5  A    between atoms: C_14  and  C_15
REMARK                            x       y       z     vdW  Elec       q    Type
REMARK                         _______ _______ _______ _____ _____    ______ ____
ROOT
ATOM      1  C   UNL     1       6.846   6.345 -13.339  0.00  0.00    -0.020 A 
ATOM      2  C   UNL     1       5.801   6.247 -12.436  0.00  0.00    -0.003 A 
ATOM      3  C   UNL     1       6.112   5.772 -11.173  0.00  0.00    +0.015 A 
ATOM      4  C   UNL     1       7.416   5.687 -10.750  0.00  0.00    +0.081 A 
ATOM      5  N   UNL     1       7.433   5.779  -9.397  0.00  0.00    -0.244 NA
ATOM      6  C   UNL     1       6.166   5.677  -8.967  0.00  0.00    +0.095 A 
ATOM      7  C   UNL     1       8.421   5.615 -11.685  0.00  0.00    +0.019 A 
ATOM      8  C   UNL     1       5.350   5.433 -10.062  0.00  0.00    -0.002 A 
ATOM      9  C   UNL     1       8.081   5.798 -13.016  0.00  0.00    -0.003 A 
ENDROOT
BRANCH   8  10
ATOM     10  C   UNL     1       3.887   5.232 -10.017  0.00  0.00    +0.027 C 
ATOM     11  C   UNL     1       3.463   4.231  -8.971  0.00  0.00    +0.022 C 
ATOM     12  C   UNL     1       3.338   4.815  -7.597  0.00  0.00    +0.072 C 
ATOM     13  N   UNL     1       2.553   6.013  -7.531  0.00  0.00    -0.271 NA
ATOM     14  C   UNL     1       3.093   7.019  -6.652  0.00  0.00    +0.090 C 
ATOM     15  C   UNL     1       2.132   6.523  -8.805  0.00  0.00    +0.072 C 
ATOM     16  C   UNL     1       3.224   6.574  -9.833  0.00  0.00    +0.022 C 
ENDBRANCH   8  10
BRANCH   1  17
ATOM     17  C   UNL     1       6.628   6.910 -14.707  0.00  0.00    +0.053 C 
BRANCH  17  18
ATOM     18  C   UNL     1       5.201   6.632 -15.092  0.00  0.00    +0.175 C 
BRANCH  18  19
ATOM     19  S   UNL     1       4.656   7.567 -16.481  0.00  0.00    +0.058 S 
ATOM     20  O   UNL     1       5.186   8.970 -16.483  0.00  0.00    -0.156 OA
ATOM     21  O   UNL     1       3.146   7.600 -16.446  0.00  0.00    -0.156 OA
BRANCH  19  23
ATOM     22  C   UNL     1       6.305   7.363 -18.535  0.00  0.00    +0.136 C 
ATOM     23  N   UNL     1       5.082   6.822 -17.987  0.00  0.00    -0.080 NA
ENDBRANCH  19  23
ENDBRANCH  18  19
ENDBRANCH  17  18
ENDBRANCH   1  17
TORSDOF 5
ENDMDL
