MODEL 1
REMARK VINA RESULT:      -6.6      0.000      0.000
REMARK  Name = 
REMARK  2 active torsions:
REMARK  status: ('A' for Active; 'I' for Inactive)
REMARK    1  A    between atoms: C5*_2  and  C4*_3
REMARK    2  A    between atoms: C1*_5  and  N_6
REMARK                            x       y       z     vdW  Elec       q    Type
REMARK                         _______ _______ _______ _____ _____    ______ ____
ROOT
ATOM      1  N   UNL     1       4.556   5.059  -9.311  0.00  0.00    -0.272 N 
ATOM      2  C   UNL     1       4.940   5.355 -10.583  0.00  0.00    +0.164 A 
ATOM      3  N   UNL     1       4.065   5.458 -11.692  0.00  0.00    -0.208 NA
ATOM      4  C   UNL     1       4.308   5.195 -12.949  0.00  0.00    +0.183 C 
ATOM      5  N   UNL     1       5.671   5.029 -13.392  0.00  0.00    -0.215 NA
ATOM      6  C   UNL     1       6.646   6.046 -13.003  0.00  0.00    +0.153 C 
ATOM      7  C   UNL     1       7.369   5.408 -11.641  0.00  0.00    +0.216 C 
ATOM      8  O   UNL     1       8.129   6.731 -11.428  0.00  0.00    -0.215 OA
ATOM      9  C   UNL     1       6.188   5.903 -10.616  0.00  0.00    +0.127 A 
ATOM     10  N   UNL     1       6.688   5.595  -9.382  0.00  0.00    -0.224 NA
ATOM     11  C   UNL     1       5.695   5.017  -8.654  0.00  0.00    +0.181 A 
ENDROOT
BRANCH   1  16
ATOM     12  C4* UNL     1       2.468   6.384  -6.870  0.00  0.00    +0.180 C 
ATOM     13  C3* UNL     1       2.611   4.679  -6.570  0.00  0.00    +0.186 C 
ATOM     14  O3* UNL     1       1.101   4.498  -6.445  0.00  0.00    -0.220 OA
ATOM     15  C2* UNL     1       2.603   4.372  -8.178  0.00  0.00    +0.089 C 
ATOM     16  C1* UNL     1       3.234   5.803  -8.762  0.00  0.00    +0.210 C 
ATOM     17  O4* UNL     1       3.873   6.219  -7.416  0.00  0.00    -0.332 OA
BRANCH  12  19
ATOM     18  O5* UNL     1       3.564   7.489  -5.338  0.00  0.00    -0.218 OA
ATOM     19  C5* UNL     1       3.024   6.780  -5.361  0.00  0.00    +0.214 C 
ENDBRANCH  12  19
ENDBRANCH   1  16
TORSDOF 2
ENDMDL
MODEL 2
REMARK VINA RESULT:      -6.6      4.575      8.215
REMARK  Name = 
REMARK  2 active torsions:
REMARK  status: ('A' for Active; 'I' for Inactive)
REMARK    1  A    between atoms: C5*_2  and  C4*_3
REMARK    2  A    between atoms: C1*_5  and  N_6
REMARK                            x       y       z     vdW  Elec       q    Type
REMARK                         _______ _______ _______ _____ _____    ______ ____
ROOT
ATOM      1  N   UNL     1       0.183   5.031  -6.296  0.00  0.00    -0.272 N 
ATOM      2  C   UNL     1      -0.039   5.336  -4.988  0.00  0.00    +0.164 A 
ATOM      3  N   UNL     1       0.959   5.386  -3.985  0.00  0.00    -0.208 NA
ATOM      4  C   UNL     1       0.848   5.125  -2.710  0.00  0.00    +0.183 C 
ATOM      5  N   UNL     1      -0.463   5.023  -2.115  0.00  0.00    -0.215 NA
ATOM      6  C   UNL     1      -1.423   6.090  -2.388  0.00  0.00    +0.153 C 
ATOM      7  C   UNL     1      -2.327   5.500  -3.661  0.00  0.00    +0.216 C 
ATOM      8  O   UNL     1      -3.039   6.861  -3.783  0.00  0.00    -0.215 OA
ATOM      9  C   UNL     1      -1.247   5.944  -4.812  0.00  0.00    +0.127 A 
ATOM     10  N   UNL     1      -1.898   5.672  -5.982  0.00  0.00    -0.224 NA
ATOM     11  C   UNL     1      -1.024   5.051  -6.820  0.00  0.00    +0.181 A 
ENDROOT
BRANCH   1  16
ATOM     12  C4* UNL     1       2.259   5.868  -8.954  0.00  0.00    +0.180 C 
ATOM     13  C3* UNL     1       2.241   4.135  -8.825  0.00  0.00    +0.186 C 
ATOM     14  O3* UNL     1       3.763   4.040  -8.877  0.00  0.00    -0.220 OA
ATOM     15  C2* UNL     1       2.215   4.233  -7.192  0.00  0.00    +0.089 C 
ATOM     16  C1* UNL     1       1.469   5.713  -6.989  0.00  0.00    +0.210 C 
ATOM     17  O4* UNL     1       0.850   5.739  -8.407  0.00  0.00    -0.332 OA
BRANCH  12  19
ATOM     18  O5* UNL     1       1.361   6.601 -10.804  0.00  0.00    -0.218 OA
ATOM     19  C5* UNL     1       1.729   5.839 -10.523  0.00  0.00    +0.214 C 
ENDBRANCH  12  19
ENDBRANCH   1  16
TORSDOF 2
ENDMDL
MODEL 3
REMARK VINA RESULT:      -6.6      4.818      8.413
REMARK  Name = 
REMARK  2 active torsions:
REMARK  status: ('A' for Active; 'I' for Inactive)
REMARK    1  A    between atoms: C5*_2  and  C4*_3
REMARK    2  A    between atoms: C1*_5  and  N_6
REMARK                            x       y       z     vdW  Elec       q    Type
REMARK                         _______ _______ _______ _____ _____    ______ ____
ROOT
ATOM      1  N   UNL     1       0.612   4.884  -5.167  0.00  0.00    -0.272 N 
ATOM      2  C   UNL     1       0.132   5.286  -3.958  0.00  0.00    +0.164 A 
ATOM      3  N   UNL     1       0.871   5.283  -2.750  0.00  0.00    -0.208 NA
ATOM      4  C   UNL     1       0.437   5.110  -1.530  0.00  0.00    +0.183 C 
ATOM      5  N   UNL     1      -0.978   5.188  -1.258  0.00  0.00    -0.215 NA
ATOM      6  C   UNL     1      -1.713   6.337  -1.782  0.00  0.00    +0.153 C 
ATOM      7  C   UNL     1      -2.363   5.778  -3.214  0.00  0.00    +0.216 C 
ATOM      8  O   UNL     1      -2.857   7.200  -3.542  0.00  0.00    -0.215 OA
ATOM      9  C   UNL     1      -1.000   6.033  -4.091  0.00  0.00    +0.127 A 
ATOM     10  N   UNL     1      -1.392   5.768  -5.373  0.00  0.00    -0.224 NA
ATOM     11  C   UNL     1      -0.430   5.007  -5.962  0.00  0.00    +0.181 A 
ENDROOT
BRANCH   1  16
ATOM     12  C4* UNL     1       3.000   6.415  -7.175  0.00  0.00    +0.180 C 
ATOM     13  C3* UNL     1       2.337   5.080  -8.070  0.00  0.00    +0.186 C 
ATOM     14  O3* UNL     1       3.718   4.546  -8.439  0.00  0.00    -0.220 OA
ATOM     15  C2* UNL     1       2.255   4.177  -6.707  0.00  0.00    +0.089 C 
ATOM     16  C1* UNL     1       2.096   5.378  -5.558  0.00  0.00    +0.210 C 
ATOM     17  O4* UNL     1       1.613   6.452  -6.560  0.00  0.00    -0.332 OA
BRANCH  12  19
ATOM     18  O5* UNL     1       2.265   8.283  -8.036  0.00  0.00    -0.218 OA
ATOM     19  C5* UNL     1       2.587   7.511  -8.346  0.00  0.00    +0.214 C 
ENDBRANCH  12  19
ENDBRANCH   1  16
TORSDOF 2
ENDMDL
MODEL 4
REMARK VINA RESULT:      -6.5      1.762      3.012
REMARK  Name = 
REMARK  2 active torsions:
REMARK  status: ('A' for Active; 'I' for Inactive)
REMARK    1  A    between atoms: C5*_2  and  C4*_3
REMARK    2  A    between atoms: C1*_5  and  N_6
REMARK                            x       y       z     vdW  Elec       q    Type
REMARK                         _______ _______ _______ _____ _____    ______ ____
ROOT
ATOM      1  N   UNL     1       3.669   6.220  -9.627  0.00  0.00    -0.272 N 
ATOM      2  C   UNL     1       4.902   5.880 -10.095  0.00  0.00    +0.164 A 
ATOM      3  N   UNL     1       6.038   5.636  -9.287  0.00  0.00    -0.208 NA
ATOM      4  C   UNL     1       7.297   5.840  -9.567  0.00  0.00    +0.183 C 
ATOM      5  N   UNL     1       7.692   6.093 -10.932  0.00  0.00    -0.215 NA
ATOM      6  C   UNL     1       7.196   5.188 -11.966  0.00  0.00    +0.153 C 
ATOM      7  C   UNL     1       5.848   5.968 -12.569  0.00  0.00    +0.216 C 
ATOM      8  O   UNL     1       5.517   4.729 -13.423  0.00  0.00    -0.215 OA
ATOM      9  C   UNL     1       4.845   5.439 -11.384  0.00  0.00    +0.127 A 
ATOM     10  N   UNL     1       3.613   5.863 -11.797  0.00  0.00    -0.224 NA
ATOM     11  C   UNL     1       2.967   6.399 -10.727  0.00  0.00    +0.181 A 
ENDROOT
BRANCH   1  16
ATOM     12  C4* UNL     1       1.322   5.291  -7.240  0.00  0.00    +0.180 C 
ATOM     13  C3* UNL     1       1.638   6.987  -7.034  0.00  0.00    +0.186 C 
ATOM     14  O3* UNL     1       1.854   6.841  -5.531  0.00  0.00    -0.220 OA
ATOM     15  C2* UNL     1       3.223   6.756  -7.374  0.00  0.00    +0.089 C 
ATOM     16  C1* UNL     1       3.130   5.403  -8.346  0.00  0.00    +0.210 C 
ATOM     17  O4* UNL     1       1.635   5.597  -8.692  0.00  0.00    -0.332 OA
BRANCH  12  19
ATOM     18  O5* UNL     1      -0.827   4.946  -7.051  0.00  0.00    -0.218 OA
ATOM     19  C5* UNL     1      -0.301   5.537  -7.464  0.00  0.00    +0.214 C 
ENDBRANCH  12  19
ENDBRANCH   1  16
TORSDOF 2
ENDMDL
MODEL 5
REMARK VINA RESULT:      -6.4      4.526      6.412
REMARK  Name = 
REMARK  2 active torsions:
REMARK  status: ('A' for Active; 'I' for Inactive)
REMARK    1  A    between atoms: C5*_2  and  C4*_3
REMARK    2  A    between atoms: C1*_5  and  N_6
REMARK                            x       y       z     vdW  Elec       q    Type
REMARK                         _______ _______ _______ _____ _____    ______ ____
ROOT
ATOM      1  N   UNL     1       3.392   6.211  -3.971  0.00  0.00    -0.272 N 
ATOM      2  C   UNL     1       2.523   6.014  -5.001  0.00  0.00    +0.164 A 
ATOM      3  N   UNL     1       1.399   5.153  -4.962  0.00  0.00    -0.208 NA
ATOM      4  C   UNL     1       0.853   4.480  -5.939  0.00  0.00    +0.183 C 
ATOM      5  N   UNL     1       1.204   4.794  -7.304  0.00  0.00    -0.215 NA
ATOM      6  C   UNL     1       1.165   6.196  -7.715  0.00  0.00    +0.153 C 
ATOM      7  C   UNL     1       2.746   6.706  -7.549  0.00  0.00    +0.216 C 
ATOM      8  O   UNL     1       2.309   8.151  -7.857  0.00  0.00    -0.215 OA
ATOM      9  C   UNL     1       2.626   6.997  -5.939  0.00  0.00    +0.127 A 
ATOM     10  N   UNL     1       3.820   7.587  -5.632  0.00  0.00    -0.224 NA
ATOM     11  C   UNL     1       4.286   7.030  -4.483  0.00  0.00    +0.181 A 
ENDROOT
BRANCH   1  16
ATOM     12  C4* UNL     1       3.104   7.619  -0.807  0.00  0.00    +0.180 C 
ATOM     13  C3* UNL     1       4.666   6.863  -0.907  0.00  0.00    +0.186 C 
ATOM     14  O3* UNL     1       4.479   6.132   0.419  0.00  0.00    -0.220 OA
ATOM     15  C2* UNL     1       4.038   5.628  -1.778  0.00  0.00    +0.089 C 
ATOM     16  C1* UNL     1       2.746   6.395  -2.505  0.00  0.00    +0.210 C 
ATOM     17  O4* UNL     1       3.311   7.820  -2.297  0.00  0.00    -0.332 OA
BRANCH  12  19
ATOM     18  O5* UNL     1       3.389   9.783  -0.888  0.00  0.00    -0.218 OA
ATOM     19  C5* UNL     1       3.753   9.100  -0.445  0.00  0.00    +0.214 C 
ENDBRANCH  12  19
ENDBRANCH   1  16
TORSDOF 2
ENDMDL
MODEL 6
REMARK VINA RESULT:      -6.3      2.219      6.424
REMARK  Name = 
REMARK  2 active torsions:
REMARK  status: ('A' for Active; 'I' for Inactive)
REMARK    1  A    between atoms: C5*_2  and  C4*_3
REMARK    2  A    between atoms: C1*_5  and  N_6
REMARK                            x       y       z     vdW  Elec       q    Type
REMARK                         _______ _______ _______ _____ _____    ______ ____
ROOT
ATOM      1  N   UNL     1       4.206   5.158  -8.644  0.00  0.00    -0.272 N 
ATOM      2  C   UNL     1       3.603   5.571  -7.495  0.00  0.00    +0.164 A 
ATOM      3  N   UNL     1       3.911   6.766  -6.802  0.00  0.00    -0.208 NA
ATOM      4  C   UNL     1       3.842   7.006  -5.519  0.00  0.00    +0.183 C 
ATOM      5  N   UNL     1       3.129   6.091  -4.661  0.00  0.00    -0.215 NA
ATOM      6  C   UNL     1       1.784   5.683  -5.062  0.00  0.00    +0.153 C 
ATOM      7  C   UNL     1       2.024   4.228  -5.845  0.00  0.00    +0.216 C 
ATOM      8  O   UNL     1       0.539   4.209  -6.258  0.00  0.00    -0.215 OA
ATOM      9  C   UNL     1       2.430   4.911  -7.280  0.00  0.00    +0.127 A 
ATOM     10  N   UNL     1       2.520   3.843  -8.127  0.00  0.00    -0.224 NA
ATOM     11  C   UNL     1       3.646   3.990  -8.876  0.00  0.00    +0.181 A 
ENDROOT
BRANCH   1  16
ATOM     12  C4* UNL     1       5.049   6.303 -11.815  0.00  0.00    +0.180 C 
ATOM     13  C3* UNL     1       6.454   5.532 -11.143  0.00  0.00    +0.186 C 
ATOM     14  O3* UNL     1       7.359   6.710 -11.492  0.00  0.00    -0.220 OA
ATOM     15  C2* UNL     1       6.101   6.129  -9.660  0.00  0.00    +0.089 C 
ATOM     16  C1* UNL     1       4.443   6.277  -9.780  0.00  0.00    +0.210 C 
ATOM     17  O4* UNL     1       4.312   5.287 -10.962  0.00  0.00    -0.332 OA
BRANCH  12  19
ATOM     18  O5* UNL     1       4.221   5.104 -13.442  0.00  0.00    -0.218 OA
ATOM     19  C5* UNL     1       5.035   5.307 -13.139  0.00  0.00    +0.214 C 
ENDBRANCH  12  19
ENDBRANCH   1  16
TORSDOF 2
ENDMDL
MODEL 7
REMARK VINA RESULT:      -6.3      4.215      7.709
REMARK  Name = 
REMARK  2 active torsions:
REMARK  status: ('A' for Active; 'I' for Inactive)
REMARK    1  A    between atoms: C5*_2  and  C4*_3
REMARK    2  A    between atoms: C1*_5  and  N_6
REMARK                            x       y       z     vdW  Elec       q    Type
REMARK                         _______ _______ _______ _____ _____    ______ ____
ROOT
ATOM      1  N   UNL     1       1.262   6.176  -5.799  0.00  0.00    -0.272 N 
ATOM      2  C   UNL     1       0.058   5.863  -5.245  0.00  0.00    +0.164 A 
ATOM      3  N   UNL     1      -1.124   5.584  -5.973  0.00  0.00    -0.208 NA
ATOM      4  C   UNL     1      -2.364   5.806  -5.631  0.00  0.00    +0.183 C 
ATOM      5  N   UNL     1      -2.679   6.126  -4.259  0.00  0.00    -0.215 NA
ATOM      6  C   UNL     1      -2.124   5.271  -3.212  0.00  0.00    +0.153 C 
ATOM      7  C   UNL     1      -0.744   6.074  -2.728  0.00  0.00    +0.216 C 
ATOM      8  O   UNL     1      -0.364   4.878  -1.835  0.00  0.00    -0.215 OA
ATOM      9  C   UNL     1       0.189   5.485  -3.941  0.00  0.00    +0.127 A 
ATOM     10  N   UNL     1       1.443   5.924  -3.621  0.00  0.00    -0.224 NA
ATOM     11  C   UNL     1       2.026   6.405  -4.752  0.00  0.00    +0.181 A 
ENDROOT
BRANCH   1  16
ATOM     12  C4* UNL     1       3.450   5.154  -8.297  0.00  0.00    +0.180 C 
ATOM     13  C3* UNL     1       3.080   6.829  -8.575  0.00  0.00    +0.186 C 
ATOM     14  O3* UNL     1       2.758   6.591 -10.048  0.00  0.00    -0.220 OA
ATOM     15  C2* UNL     1       1.530   6.588  -8.107  0.00  0.00    +0.089 C 
ATOM     16  C1* UNL     1       1.725   5.296  -7.068  0.00  0.00    +0.210 C 
ATOM     17  O4* UNL     1       3.237   5.539  -6.845  0.00  0.00    -0.332 OA
BRANCH  12  19
ATOM     18  O5* UNL     1       5.591   4.727  -8.341  0.00  0.00    -0.218 OA
ATOM     19  C5* UNL     1       5.079   5.444  -8.208  0.00  0.00    +0.214 C 
ENDBRANCH  12  19
ENDBRANCH   1  16
TORSDOF 2
ENDMDL
MODEL 8
REMARK VINA RESULT:      -6.2      3.970      6.783
REMARK  Name = 
REMARK  2 active torsions:
REMARK  status: ('A' for Active; 'I' for Inactive)
REMARK    1  A    between atoms: C5*_2  and  C4*_3
REMARK    2  A    between atoms: C1*_5  and  N_6
REMARK                            x       y       z     vdW  Elec       q    Type
REMARK                         _______ _______ _______ _____ _____    ______ ____
ROOT
ATOM      1  N   UNL     1       1.132   6.281  -9.723  0.00  0.00    -0.272 N 
ATOM      2  C   UNL     1       0.755   5.745  -8.529  0.00  0.00    +0.164 A 
ATOM      3  N   UNL     1      -0.564   5.353  -8.196  0.00  0.00    -0.208 NA
ATOM      4  C   UNL     1      -1.145   5.357  -7.026  0.00  0.00    +0.183 C 
ATOM      5  N   UNL     1      -0.346   5.512  -5.834  0.00  0.00    -0.215 NA
ATOM      6  C   UNL     1       0.836   4.666  -5.688  0.00  0.00    +0.153 C 
ATOM      7  C   UNL     1       2.086   5.625  -6.241  0.00  0.00    +0.216 C 
ATOM      8  O   UNL     1       3.051   4.429  -6.126  0.00  0.00    -0.215 OA
ATOM      9  C   UNL     1       1.828   5.285  -7.824  0.00  0.00    +0.127 A 
ATOM     10  N   UNL     1       2.884   5.880  -8.454  0.00  0.00    -0.224 NA
ATOM     11  C   UNL     1       2.412   6.535  -9.549  0.00  0.00    +0.181 A 
ENDROOT
BRANCH   1  16
ATOM     12  C4* UNL     1       1.121   5.373 -13.077  0.00  0.00    +0.180 C 
ATOM     13  C3* UNL     1       1.106   7.109 -13.001  0.00  0.00    +0.186 C 
ATOM     14  O3* UNL     1      -0.055   7.217 -13.986  0.00  0.00    -0.220 OA
ATOM     15  C2* UNL     1       0.114   7.067 -11.700  0.00  0.00    +0.089 C 
ATOM     16  C1* UNL     1       0.531   5.588 -11.049  0.00  0.00    +0.210 C 
ATOM     17  O4* UNL     1       1.893   5.508 -11.778  0.00  0.00    -0.332 OA
BRANCH  12  19
ATOM     18  O5* UNL     1       2.725   4.539 -14.302  0.00  0.00    -0.218 OA
ATOM     19  C5* UNL     1       2.508   5.343 -13.981  0.00  0.00    +0.214 C 
ENDBRANCH  12  19
ENDBRANCH   1  16
TORSDOF 2
ENDMDL
MODEL 9
REMARK VINA RESULT:      -6.1      3.410      4.767
REMARK  Name = 
REMARK  2 active torsions:
REMARK  status: ('A' for Active; 'I' for Inactive)
REMARK    1  A    between atoms: C5*_2  and  C4*_3
REMARK    2  A    between atoms: C1*_5  and  N_6
REMARK                            x       y       z     vdW  Elec       q    Type
REMARK                         _______ _______ _______ _____ _____    ______ ____
ROOT
ATOM      1  N   UNL     1       0.717   5.198  -6.616  0.00  0.00    -0.272 N 
ATOM      2  C   UNL     1       1.358   5.515  -7.775  0.00  0.00    +0.164 A 
ATOM      3  N   UNL     1       0.910   6.476  -8.714  0.00  0.00    -0.208 NA
ATOM      4  C   UNL     1       1.079   6.491 -10.009  0.00  0.00    +0.183 C 
ATOM      5  N   UNL     1       2.047   5.606 -10.612  0.00  0.00    -0.215 NA
ATOM      6  C   UNL     1       3.390   5.567 -10.036  0.00  0.00    +0.153 C 
ATOM      7  C   UNL     1       3.344   4.259  -9.000  0.00  0.00    +0.216 C 
ATOM      8  O   UNL     1       4.747   4.625  -8.480  0.00  0.00    -0.215 OA
ATOM      9  C   UNL     1       2.653   5.088  -7.765  0.00  0.00    +0.127 A 
ATOM     10  N   UNL     1       2.671   4.194  -6.732  0.00  0.00    -0.224 NA
ATOM     11  C   UNL     1       1.460   4.235  -6.114  0.00  0.00    +0.181 A 
ENDROOT
BRANCH   1  16
ATOM     12  C4* UNL     1      -0.686   6.692  -3.810  0.00  0.00    +0.180 C 
ATOM     13  C3* UNL     1      -1.832   5.537  -4.420  0.00  0.00    +0.186 C 
ATOM     14  O3* UNL     1      -2.979   6.543  -4.382  0.00  0.00    -0.220 OA
ATOM     15  C2* UNL     1      -1.432   5.919  -5.961  0.00  0.00    +0.089 C 
ATOM     16  C1* UNL     1       0.143   6.429  -5.747  0.00  0.00    +0.210 C 
ATOM     17  O4* UNL     1       0.324   5.717  -4.385  0.00  0.00    -0.332 OA
BRANCH  12  19
ATOM     18  O5* UNL     1      -0.328   6.500  -1.664  0.00  0.00    -0.218 OA
ATOM     19  C5* UNL     1      -0.634   5.976  -2.317  0.00  0.00    +0.214 C 
ENDBRANCH  12  19
ENDBRANCH   1  16
TORSDOF 2
ENDMDL
