MODEL 1
REMARK VINA RESULT:      -8.0      0.000      0.000
REMARK  Name = 
REMARK  0 active torsions:
REMARK  status: ('A' for Active; 'I' for Inactive)
REMARK                            x       y       z     vdW  Elec       q    Type
REMARK                         _______ _______ _______ _____ _____    ______ ____
ROOT
ATOM      1  C   UNL     1       2.112   5.361 -10.186  0.00  0.00    +0.090 C 
ATOM      2  N   UNL     1       2.840   5.524  -9.203  0.00  0.00    -0.272 NA
ATOM      3  C   UNL     1       2.038   4.793  -8.040  0.00  0.00    +0.062 C 
ATOM      4  C   UNL     1       0.966   6.044  -7.980  0.00  0.00    +0.042 C 
ATOM      5  C   UNL     1       0.273   5.920  -6.700  0.00  0.00    -0.025 A 
ATOM      6  C   UNL     1       1.183   6.375  -5.741  0.00  0.00    -0.023 A 
ATOM      7  C   UNL     1       2.440   6.692  -6.358  0.00  0.00    +0.021 C 
ATOM      8  C   UNL     1       3.435   7.126  -5.331  0.00  0.00    +0.004 C 
ATOM      9  C   UNL     1       3.528   6.161  -4.195  0.00  0.00    +0.000 C 
ATOM     10  C   UNL     1       3.675   4.714  -4.625  0.00  0.00    +0.000 C 
ATOM     11  C   UNL     1       2.590   4.414  -5.659  0.00  0.00    +0.002 C 
ATOM     12  C   UNL     1       2.451   7.441  -7.632  0.00  0.00    +0.021 C 
ATOM     13  C   UNL     1       0.828   6.334  -4.419  0.00  0.00    +0.037 A 
ATOM     14  C   UNL     1      -0.395   5.748  -4.103  0.00  0.00    +0.195 A 
ATOM     15  O   UNL     1      -0.581   5.040  -2.908  0.00  0.00    -0.287 OA
ATOM     16  C   UNL     1      -1.366   5.627  -5.092  0.00  0.00    +0.042 A 
ATOM     17  C   UNL     1      -1.050   5.755  -6.442  0.00  0.00    -0.001 A 
ATOM     18  C   UNL     1       3.198   5.346  -6.872  0.00  0.00    +0.019 C 
ATOM     19  C   UNL     1       3.143   6.821  -8.776  0.00  0.00    +0.072 C 
ENDROOT
TORSDOF 0
ENDMDL
MODEL 2
REMARK VINA RESULT:      -7.7      3.106      5.682
REMARK  Name = 
REMARK  0 active torsions:
REMARK  status: ('A' for Active; 'I' for Inactive)
REMARK                            x       y       z     vdW  Elec       q    Type
REMARK                         _______ _______ _______ _____ _____    ______ ____
ROOT
ATOM      1  C   UNL     1       2.925   5.205  -4.946  0.00  0.00    +0.090 C 
ATOM      2  N   UNL     1       2.087   5.365  -5.838  0.00  0.00    -0.272 NA
ATOM      3  C   UNL     1       2.764   4.664  -7.095  0.00  0.00    +0.062 C 
ATOM      4  C   UNL     1       3.799   5.937  -7.259  0.00  0.00    +0.042 C 
ATOM      5  C   UNL     1       4.343   5.842  -8.612  0.00  0.00    -0.025 A 
ATOM      6  C   UNL     1       3.322   6.290  -9.454  0.00  0.00    -0.023 A 
ATOM      7  C   UNL     1       2.138   6.575  -8.693  0.00  0.00    +0.021 C 
ATOM      8  C   UNL     1       1.024   7.001  -9.593  0.00  0.00    +0.004 C 
ATOM      9  C   UNL     1       0.820   6.048 -10.725  0.00  0.00    +0.000 C 
ATOM     10  C   UNL     1       0.750   4.593 -10.302  0.00  0.00    +0.000 C 
ATOM     11  C   UNL     1       1.951   4.303  -9.403  0.00  0.00    +0.002 C 
ATOM     12  C   UNL     1       2.259   7.308  -7.416  0.00  0.00    +0.021 C 
ATOM     13  C   UNL     1       3.524   6.272 -10.809  0.00  0.00    +0.037 A 
ATOM     14  C   UNL     1       4.714   5.715 -11.269  0.00  0.00    +0.195 A 
ATOM     15  O   UNL     1       4.774   5.025 -12.488  0.00  0.00    -0.287 OA
ATOM     16  C   UNL     1       5.793   5.601 -10.399  0.00  0.00    +0.042 A 
ATOM     17  C   UNL     1       5.631   5.707  -9.021  0.00  0.00    -0.001 A 
ATOM     18  C   UNL     1       1.469   5.208  -8.116  0.00  0.00    +0.019 C 
ATOM     19  C   UNL     1       1.714   6.660  -6.210  0.00  0.00    +0.072 C 
ENDROOT
TORSDOF 0
ENDMDL
MODEL 3
REMARK VINA RESULT:      -7.4      1.813      3.777
REMARK  Name = 
REMARK  0 active torsions:
REMARK  status: ('A' for Active; 'I' for Inactive)
REMARK                            x       y       z     vdW  Elec       q    Type
REMARK                         _______ _______ _______ _____ _____    ______ ____
ROOT
ATOM      1  C   UNL     1       4.481   6.626  -3.142  0.00  0.00    +0.090 C 
ATOM      2  N   UNL     1       4.349   6.442  -4.356  0.00  0.00    -0.272 NA
ATOM      3  C   UNL     1       2.891   7.007  -4.647  0.00  0.00    +0.062 C 
ATOM      4  C   UNL     1       2.224   5.672  -3.944  0.00  0.00    +0.042 C 
ATOM      5  C   UNL     1       0.834   5.634  -4.394  0.00  0.00    -0.025 A 
ATOM      6  C   UNL     1       0.884   5.176  -5.713  0.00  0.00    -0.023 A 
ATOM      7  C   UNL     1       2.247   5.014  -6.133  0.00  0.00    +0.021 C 
ATOM      8  C   UNL     1       2.309   4.578  -7.561  0.00  0.00    +0.004 C 
ATOM      9  C   UNL     1       1.485   5.450  -8.451  0.00  0.00    +0.000 C 
ATOM     10  C   UNL     1       1.718   6.935  -8.247  0.00  0.00    +0.000 C 
ATOM     11  C   UNL     1       1.612   7.231  -6.752  0.00  0.00    +0.002 C 
ATOM     12  C   UNL     1       3.215   4.376  -5.215  0.00  0.00    +0.021 C 
ATOM     13  C   UNL     1      -0.282   5.079  -6.425  0.00  0.00    +0.037 A 
ATOM     14  C   UNL     1      -1.446   5.536  -5.811  0.00  0.00    +0.195 A 
ATOM     15  O   UNL     1      -2.480   6.124  -6.551  0.00  0.00    -0.287 OA
ATOM     16  C   UNL     1      -1.480   5.659  -4.426  0.00  0.00    +0.042 A 
ATOM     17  C   UNL     1      -0.313   5.670  -3.667  0.00  0.00    -0.001 A 
ATOM     18  C   UNL     1       2.988   6.454  -6.290  0.00  0.00    +0.019 C 
ATOM     19  C   UNL     1       4.424   5.143  -4.868  0.00  0.00    +0.072 C 
ENDROOT
TORSDOF 0
ENDMDL
MODEL 4
REMARK VINA RESULT:      -7.3      1.747      2.502
REMARK  Name = 
REMARK  0 active torsions:
REMARK  status: ('A' for Active; 'I' for Inactive)
REMARK                            x       y       z     vdW  Elec       q    Type
REMARK                         _______ _______ _______ _____ _____    ______ ____
ROOT
ATOM      1  C   UNL     1      -0.170   4.630 -11.968  0.00  0.00    +0.090 C 
ATOM      2  N   UNL     1       0.913   4.962 -11.477  0.00  0.00    -0.272 NA
ATOM      3  C   UNL     1       0.853   4.330 -10.019  0.00  0.00    +0.062 C 
ATOM      4  C   UNL     1      -0.202   5.506  -9.543  0.00  0.00    +0.042 C 
ATOM      5  C   UNL     1      -0.182   5.496  -8.082  0.00  0.00    -0.025 A 
ATOM      6  C   UNL     1       1.013   6.127  -7.724  0.00  0.00    -0.023 A 
ATOM      7  C   UNL     1       1.778   6.447  -8.895  0.00  0.00    +0.021 C 
ATOM      8  C   UNL     1       3.083   7.071  -8.518  0.00  0.00    +0.004 C 
ATOM      9  C   UNL     1       3.818   6.263  -7.499  0.00  0.00    +0.000 C 
ATOM     10  C   UNL     1       3.913   4.786  -7.833  0.00  0.00    +0.000 C 
ATOM     11  C   UNL     1       2.510   4.289  -8.183  0.00  0.00    +0.002 C 
ATOM     12  C   UNL     1       1.093   7.030 -10.068  0.00  0.00    +0.021 C 
ATOM     13  C   UNL     1       1.338   6.228  -6.397  0.00  0.00    +0.037 A 
ATOM     14  C   UNL     1       0.490   5.606  -5.483  0.00  0.00    +0.195 A 
ATOM     15  O   UNL     1       0.980   5.042  -4.297  0.00  0.00    -0.287 OA
ATOM     16  C   UNL     1      -0.812   5.298  -5.864  0.00  0.00    +0.042 A 
ATOM     17  C   UNL     1      -1.193   5.278  -7.203  0.00  0.00    -0.001 A 
ATOM     18  C   UNL     1       2.354   5.101  -9.607  0.00  0.00    +0.019 C 
ATOM     19  C   UNL     1       1.226   6.320 -11.352  0.00  0.00    +0.072 C 
ENDROOT
TORSDOF 0
ENDMDL
MODEL 5
REMARK VINA RESULT:      -7.2      1.839      4.091
REMARK  Name = 
REMARK  0 active torsions:
REMARK  status: ('A' for Active; 'I' for Inactive)
REMARK                            x       y       z     vdW  Elec       q    Type
REMARK                         _______ _______ _______ _____ _____    ______ ____
ROOT
ATOM      1  C   UNL     1       3.340   6.444  -6.409  0.00  0.00    +0.090 C 
ATOM      2  N   UNL     1       2.132   6.545  -6.642  0.00  0.00    -0.272 NA
ATOM      3  C   UNL     1       1.542   7.052  -5.254  0.00  0.00    +0.062 C 
ATOM      4  C   UNL     1       1.721   5.541  -4.616  0.00  0.00    +0.042 C 
ATOM      5  C   UNL     1       0.880   5.507  -3.422  0.00  0.00    -0.025 A 
ATOM      6  C   UNL     1      -0.429   5.382  -3.895  0.00  0.00    -0.023 A 
ATOM      7  C   UNL     1      -0.447   5.428  -5.330  0.00  0.00    +0.021 C 
ATOM      8  C   UNL     1      -1.849   5.352  -5.842  0.00  0.00    +0.004 C 
ATOM      9  C   UNL     1      -2.744   6.347  -5.178  0.00  0.00    +0.000 C 
ATOM     10  C   UNL     1      -2.179   7.753  -5.133  0.00  0.00    +0.000 C 
ATOM     11  C   UNL     1      -0.756   7.674  -4.581  0.00  0.00    +0.002 C 
ATOM     12  C   UNL     1       0.565   4.665  -6.090  0.00  0.00    +0.021 C 
ATOM     13  C   UNL     1      -1.462   5.369  -2.995  0.00  0.00    +0.037 A 
ATOM     14  C   UNL     1      -1.143   5.577  -1.655  0.00  0.00    +0.195 A 
ATOM     15  O   UNL     1      -2.020   6.246  -0.790  0.00  0.00    -0.287 OA
ATOM     16  C   UNL     1       0.163   5.364  -1.226  0.00  0.00    +0.042 A 
ATOM     17  C   UNL     1       1.221   5.281  -2.127  0.00  0.00    -0.001 A 
ATOM     18  C   UNL     1      -0.075   6.916  -5.874  0.00  0.00    +0.019 C 
ATOM     19  C   UNL     1       1.408   5.416  -7.037  0.00  0.00    +0.072 C 
ENDROOT
TORSDOF 0
ENDMDL
MODEL 6
REMARK VINA RESULT:      -7.2      2.585      4.321
REMARK  Name = 
REMARK  0 active torsions:
REMARK  status: ('A' for Active; 'I' for Inactive)
REMARK                            x       y       z     vdW  Elec       q    Type
REMARK                         _______ _______ _______ _____ _____    ______ ____
ROOT
ATOM      1  C   UNL     1      -1.619   7.180  -4.789  0.00  0.00    +0.090 C 
ATOM      2  N   UNL     1      -0.433   6.962  -4.527  0.00  0.00    -0.272 NA
ATOM      3  C   UNL     1       0.292   7.211  -5.921  0.00  0.00    +0.062 C 
ATOM      4  C   UNL     1      -0.284   5.773  -6.487  0.00  0.00    +0.042 C 
ATOM      5  C   UNL     1       0.533   5.444  -7.653  0.00  0.00    -0.025 A 
ATOM      6  C   UNL     1       1.751   4.995  -7.137  0.00  0.00    -0.023 A 
ATOM      7  C   UNL     1       1.761   5.115  -5.707  0.00  0.00    +0.021 C 
ATOM      8  C   UNL     1       3.082   4.689  -5.151  0.00  0.00    +0.004 C 
ATOM      9  C   UNL     1       4.224   5.365  -5.838  0.00  0.00    +0.000 C 
ATOM     10  C   UNL     1       4.064   6.867  -5.969  0.00  0.00    +0.000 C 
ATOM     11  C   UNL     1       2.681   7.147  -6.558  0.00  0.00    +0.002 C 
ATOM     12  C   UNL     1       0.569   4.700  -4.938  0.00  0.00    +0.021 C 
ATOM     13  C   UNL     1       2.754   4.652  -8.006  0.00  0.00    +0.037 A 
ATOM     14  C   UNL     1       2.522   4.863  -9.363  0.00  0.00    +0.195 A 
ATOM     15  O   UNL     1       3.560   5.219 -10.235  0.00  0.00    -0.287 OA
ATOM     16  C   UNL     1       1.214   4.989  -9.818  0.00  0.00    +0.042 A 
ATOM     17  C   UNL     1       0.161   5.247  -8.944  0.00  0.00    -0.001 A 
ATOM     18  C   UNL     1       1.802   6.677  -5.248  0.00  0.00    +0.019 C 
ATOM     19  C   UNL     1      -0.051   5.703  -4.055  0.00  0.00    +0.072 C 
ENDROOT
TORSDOF 0
ENDMDL
MODEL 7
REMARK VINA RESULT:      -7.1      1.475      3.485
REMARK  Name = 
REMARK  0 active torsions:
REMARK  status: ('A' for Active; 'I' for Inactive)
REMARK                            x       y       z     vdW  Elec       q    Type
REMARK                         _______ _______ _______ _____ _____    ______ ____
ROOT
ATOM      1  C   UNL     1       3.837   6.333  -9.867  0.00  0.00    +0.090 C 
ATOM      2  N   UNL     1       2.781   6.042  -9.300  0.00  0.00    -0.272 NA
ATOM      3  C   UNL     1       2.841   6.906  -7.965  0.00  0.00    +0.062 C 
ATOM      4  C   UNL     1       3.957   5.869  -7.334  0.00  0.00    +0.042 C 
ATOM      5  C   UNL     1       3.967   6.117  -5.894  0.00  0.00    -0.025 A 
ATOM      6  C   UNL     1       2.809   5.505  -5.405  0.00  0.00    -0.023 A 
ATOM      7  C   UNL     1       2.036   4.966  -6.487  0.00  0.00    +0.021 C 
ATOM      8  C   UNL     1       0.769   4.359  -5.978  0.00  0.00    +0.004 C 
ATOM      9  C   UNL     1       0.019   5.292  -5.084  0.00  0.00    +0.000 C 
ATOM     10  C   UNL     1      -0.150   6.689  -5.652  0.00  0.00    +0.000 C 
ATOM     11  C   UNL     1       1.221   7.179  -6.117  0.00  0.00    +0.002 C 
ATOM     12  C   UNL     1       2.722   4.227  -7.568  0.00  0.00    +0.021 C 
ATOM     13  C   UNL     1       2.516   5.610  -4.071  0.00  0.00    +0.037 A 
ATOM     14  C   UNL     1       3.353   6.407  -3.294  0.00  0.00    +0.195 A 
ATOM     15  O   UNL     1       2.862   7.137  -2.203  0.00  0.00    -0.287 OA
ATOM     16  C   UNL     1       4.633   6.702  -3.755  0.00  0.00    +0.042 A 
ATOM     17  C   UNL     1       4.985   6.519  -5.090  0.00  0.00    -0.001 A 
ATOM     18  C   UNL     1       1.386   6.152  -7.393  0.00  0.00    +0.019 C 
ATOM     19  C   UNL     1       2.531   4.711  -8.946  0.00  0.00    +0.072 C 
ENDROOT
TORSDOF 0
ENDMDL
MODEL 8
REMARK VINA RESULT:      -7.1      2.138      3.169
REMARK  Name = 
REMARK  0 active torsions:
REMARK  status: ('A' for Active; 'I' for Inactive)
REMARK                            x       y       z     vdW  Elec       q    Type
REMARK                         _______ _______ _______ _____ _____    ______ ____
ROOT
ATOM      1  C   UNL     1      -0.711   5.050  -6.875  0.00  0.00    +0.090 C 
ATOM      2  N   UNL     1       0.475   5.393  -6.866  0.00  0.00    -0.272 NA
ATOM      3  C   UNL     1       1.070   4.590  -5.629  0.00  0.00    +0.062 C 
ATOM      4  C   UNL     1       0.325   5.628  -4.586  0.00  0.00    +0.042 C 
ATOM      5  C   UNL     1       0.987   5.447  -3.296  0.00  0.00    -0.025 A 
ATOM      6  C   UNL     1       2.212   6.109  -3.413  0.00  0.00    -0.023 A 
ATOM      7  C   UNL     1       2.380   6.616  -4.746  0.00  0.00    +0.021 C 
ATOM      8  C   UNL     1       3.712   7.276  -4.895  0.00  0.00    +0.004 C 
ATOM      9  C   UNL     1       4.828   6.404  -4.419  0.00  0.00    +0.000 C 
ATOM     10  C   UNL     1       4.776   4.987  -4.958  0.00  0.00    +0.000 C 
ATOM     11  C   UNL     1       3.367   4.443  -4.725  0.00  0.00    +0.002 C 
ATOM     12  C   UNL     1       1.243   7.287  -5.411  0.00  0.00    +0.021 C 
ATOM     13  C   UNL     1       3.089   6.073  -2.361  0.00  0.00    +0.037 A 
ATOM     14  C   UNL     1       2.736   5.293  -1.263  0.00  0.00    +0.195 A 
ATOM     15  O   UNL     1       3.704   4.627  -0.499  0.00  0.00    -0.287 OA
ATOM     16  C   UNL     1       1.402   4.946  -1.075  0.00  0.00    +0.042 A 
ATOM     17  C   UNL     1       0.469   5.059  -2.102  0.00  0.00    -0.001 A 
ATOM     18  C   UNL     1       2.592   5.405  -5.813  0.00  0.00    +0.019 C 
ATOM     19  C   UNL     1       0.801   6.744  -6.708  0.00  0.00    +0.072 C 
ENDROOT
TORSDOF 0
ENDMDL
MODEL 9
REMARK VINA RESULT:      -7.1      3.327      5.336
REMARK  Name = 
REMARK  0 active torsions:
REMARK  status: ('A' for Active; 'I' for Inactive)
REMARK                            x       y       z     vdW  Elec       q    Type
REMARK                         _______ _______ _______ _____ _____    ______ ____
ROOT
ATOM      1  C   UNL     1      -0.243   6.597 -11.546  0.00  0.00    +0.090 C 
ATOM      2  N   UNL     1       0.057   6.365 -10.371  0.00  0.00    -0.272 NA
ATOM      3  C   UNL     1       1.529   6.956 -10.253  0.00  0.00    +0.062 C 
ATOM      4  C   UNL     1       2.122   5.671 -11.100  0.00  0.00    +0.042 C 
ATOM      5  C   UNL     1       3.561   5.651 -10.844  0.00  0.00    -0.025 A 
ATOM      6  C   UNL     1       3.700   5.136  -9.553  0.00  0.00    -0.023 A 
ATOM      7  C   UNL     1       2.411   4.919  -8.961  0.00  0.00    +0.021 C 
ATOM      8  C   UNL     1       2.552   4.421  -7.559  0.00  0.00    +0.004 C 
ATOM      9  C   UNL     1       3.470   5.277  -6.749  0.00  0.00    +0.000 C 
ATOM     10  C   UNL     1       3.180   6.762  -6.851  0.00  0.00    +0.000 C 
ATOM     11  C   UNL     1       3.077   7.124  -8.332  0.00  0.00    +0.002 C 
ATOM     12  C   UNL     1       1.341   4.296  -9.768  0.00  0.00    +0.021 C 
ATOM     13  C   UNL     1       4.954   5.040  -9.009  0.00  0.00    +0.037 A 
ATOM     14  C   UNL     1       6.013   5.554  -9.753  0.00  0.00    +0.195 A 
ATOM     15  O   UNL     1       7.126   6.138  -9.132  0.00  0.00    -0.287 OA
ATOM     16  C   UNL     1       5.857   5.738 -11.123  0.00  0.00    +0.042 A 
ATOM     17  C   UNL     1       4.598   5.749 -11.716  0.00  0.00    -0.001 A 
ATOM     18  C   UNL     1       1.667   6.331  -8.639  0.00  0.00    +0.019 C 
ATOM     19  C   UNL     1       0.080   5.043  -9.914  0.00  0.00    +0.072 C 
ENDROOT
TORSDOF 0
ENDMDL
