MODEL 1
REMARK VINA RESULT:      -7.6      0.000      0.000
REMARK  Name = 
REMARK  4 active torsions:
REMARK  status: ('A' for Active; 'I' for Inactive)
REMARK    1  A    between atoms: C_2  and  C_3
REMARK    2  A    between atoms: C_12  and  C_13
REMARK    3  A    between atoms: C_12  and  C_15
REMARK    4  A    between atoms: C_15  and  C_16
REMARK                            x       y       z     vdW  Elec       q    Type
REMARK                         _______ _______ _______ _____ _____    ______ ____
ROOT
ATOM      1  C   UNL     1       3.645   6.631  -5.510  0.00  0.00    -0.005 A 
ATOM      2  C   UNL     1       2.294   6.680  -5.755  0.00  0.00    +0.077 A 
ATOM      3  C   UNL     1       1.720   5.848  -6.704  0.00  0.00    +0.015 A 
ATOM      4  C   UNL     1       0.370   6.077  -6.602  0.00  0.00    -0.002 A 
ATOM      5  C   UNL     1      -0.750   5.412  -7.296  0.00  0.00    +0.060 C 
ATOM      6  C   UNL     1      -1.897   5.093  -6.379  0.00  0.00    +0.147 C 
ATOM      7  O   UNL     1      -1.636   5.320  -5.046  0.00  0.00    -0.352 OA
ATOM      8  C   UNL     1      -1.191   6.597  -4.763  0.00  0.00    +0.138 C 
ATOM      9  C   UNL     1       0.099   6.843  -5.480  0.00  0.00    +0.080 A 
ATOM     10  C   UNL     1       2.520   5.251  -7.669  0.00  0.00    +0.001 A 
ATOM     11  C   UNL     1       3.894   5.381  -7.510  0.00  0.00    -0.000 A 
ATOM     12  N   UNL     1       1.305   7.276  -5.048  0.00  0.00    -0.248 NA
ATOM     13  C   UNL     1       4.435   5.876  -6.339  0.00  0.00    -0.003 A 
ENDROOT
BRANCH   1  15
ATOM     14  C   UNL     1       4.825   7.643  -4.269  0.00  0.00    +0.005 C 
ATOM     15  C   UNL     1       4.269   7.354  -4.362  0.00  0.00    +0.028 C 
ENDBRANCH   1  15
BRANCH   8  16
ATOM     16  C   UNL     1      -2.169   7.675  -5.144  0.00  0.00    +0.034 C 
ATOM     17  C   UNL     1      -2.027   8.813  -4.146  0.00  0.00    +0.003 C 
ENDBRANCH   8  16
BRANCH   8  18
ATOM     18  C   UNL     1      -1.011   6.672  -3.257  0.00  0.00    +0.147 C 
BRANCH  18  19
ATOM     19  C   UNL     1      -1.055   5.338  -2.619  0.00  0.00    +0.368 C 
ATOM     20  O   UNL     1      -2.313   4.911  -2.187  0.00  0.00    -0.246 OA
ATOM     21  O   UNL     1      -0.044   4.684  -2.288  0.00  0.00    -0.246 OA
ENDBRANCH  18  19
ENDBRANCH   8  18
TORSDOF 4
ENDMDL
MODEL 2
REMARK VINA RESULT:      -7.1      2.741      5.400
REMARK  Name = 
REMARK  4 active torsions:
REMARK  status: ('A' for Active; 'I' for Inactive)
REMARK    1  A    between atoms: C_2  and  C_3
REMARK    2  A    between atoms: C_12  and  C_13
REMARK    3  A    between atoms: C_12  and  C_15
REMARK    4  A    between atoms: C_15  and  C_16
REMARK                            x       y       z     vdW  Elec       q    Type
REMARK                         _______ _______ _______ _____ _____    ______ ____
ROOT
ATOM      1  C   UNL     1      -1.785   6.659  -4.375  0.00  0.00    -0.005 A 
ATOM      2  C   UNL     1      -0.562   6.044  -4.489  0.00  0.00    +0.077 A 
ATOM      3  C   UNL     1      -0.170   5.476  -5.691  0.00  0.00    +0.015 A 
ATOM      4  C   UNL     1       1.124   5.067  -5.482  0.00  0.00    -0.002 A 
ATOM      5  C   UNL     1       2.088   4.477  -6.430  0.00  0.00    +0.060 C 
ATOM      6  C   UNL     1       3.466   5.064  -6.303  0.00  0.00    +0.147 C 
ATOM      7  O   UNL     1       3.544   6.147  -5.456  0.00  0.00    -0.352 OA
ATOM      8  C   UNL     1       3.047   5.914  -4.187  0.00  0.00    +0.138 C 
ATOM      9  C   UNL     1       1.594   5.569  -4.279  0.00  0.00    +0.080 A 
ATOM     10  C   UNL     1      -1.124   5.178  -6.655  0.00  0.00    +0.001 A 
ATOM     11  C   UNL     1      -2.411   5.644  -6.424  0.00  0.00    -0.000 A 
ATOM     12  N   UNL     1       0.506   6.072  -3.657  0.00  0.00    -0.248 NA
ATOM     13  C   UNL     1      -2.676   6.545  -5.412  0.00  0.00    -0.003 A 
ENDROOT
BRANCH   1  15
ATOM     14  C   UNL     1      -2.466   7.331  -2.630  0.00  0.00    +0.005 C 
ATOM     15  C   UNL     1      -2.160   7.459  -3.171  0.00  0.00    +0.028 C 
ENDBRANCH   1  15
BRANCH   8  16
ATOM     16  C   UNL     1       3.761   4.810  -3.454  0.00  0.00    +0.034 C 
ATOM     17  C   UNL     1       3.298   4.830  -2.006  0.00  0.00    +0.003 C 
ENDBRANCH   8  16
BRANCH   8  18
ATOM     18  C   UNL     1       3.266   7.188  -3.392  0.00  0.00    +0.147 C 
BRANCH  18  19
ATOM     19  C   UNL     1       4.663   7.668  -3.473  0.00  0.00    +0.368 C 
ATOM     20  O   UNL     1       5.432   7.503  -2.319  0.00  0.00    -0.246 OA
ATOM     21  O   UNL     1       5.116   8.356  -4.413  0.00  0.00    -0.246 OA
ENDBRANCH  18  19
ENDBRANCH   8  18
TORSDOF 4
ENDMDL
MODEL 3
REMARK VINA RESULT:      -7.1      1.532      2.836
REMARK  Name = 
REMARK  4 active torsions:
REMARK  status: ('A' for Active; 'I' for Inactive)
REMARK    1  A    between atoms: C_2  and  C_3
REMARK    2  A    between atoms: C_12  and  C_13
REMARK    3  A    between atoms: C_12  and  C_15
REMARK    4  A    between atoms: C_15  and  C_16
REMARK                            x       y       z     vdW  Elec       q    Type
REMARK                         _______ _______ _______ _____ _____    ______ ____
ROOT
ATOM      1  C   UNL     1       1.319   6.531  -6.846  0.00  0.00    -0.005 A 
ATOM      2  C   UNL     1       0.276   6.593  -5.954  0.00  0.00    +0.077 A 
ATOM      3  C   UNL     1      -0.858   5.820  -6.144  0.00  0.00    +0.015 A 
ATOM      4  C   UNL     1      -1.625   6.040  -5.027  0.00  0.00    -0.002 A 
ATOM      5  C   UNL     1      -2.901   5.418  -4.626  0.00  0.00    +0.060 C 
ATOM      6  C   UNL     1      -2.936   5.040  -3.172  0.00  0.00    +0.147 C 
ATOM      7  O   UNL     1      -1.731   5.185  -2.521  0.00  0.00    -0.352 OA
ATOM      8  C   UNL     1      -1.170   6.443  -2.635  0.00  0.00    +0.138 C 
ATOM      9  C   UNL     1      -0.895   6.735  -4.076  0.00  0.00    +0.080 A 
ATOM     10  C   UNL     1      -1.125   5.286  -7.398  0.00  0.00    +0.001 A 
ATOM     11  C   UNL     1      -0.125   5.408  -8.354  0.00  0.00    -0.000 A 
ATOM     12  N   UNL     1       0.223   7.142  -4.718  0.00  0.00    -0.248 NA
ATOM     13  C   UNL     1       1.145   5.831  -8.012  0.00  0.00    -0.003 A 
ENDROOT
BRANCH   1  15
ATOM     14  C   UNL     1       3.219   6.971  -6.450  0.00  0.00    +0.005 C 
ATOM     15  C   UNL     1       2.635   7.184  -6.574  0.00  0.00    +0.028 C 
ENDBRANCH   1  15
BRANCH   8  16
ATOM     16  C   UNL     1      -2.034   7.541  -2.076  0.00  0.00    +0.034 C 
ATOM     17  C   UNL     1      -1.849   7.563  -0.567  0.00  0.00    +0.003 C 
ENDBRANCH   8  16
BRANCH   8  18
ATOM     18  C   UNL     1       0.109   6.426  -1.818  0.00  0.00    +0.147 C 
BRANCH  18  19
ATOM     19  C   UNL     1       0.936   5.231  -2.097  0.00  0.00    +0.368 C 
ATOM     20  O   UNL     1       0.723   4.133  -1.258  0.00  0.00    -0.246 OA
ATOM     21  O   UNL     1       1.907   5.216  -2.883  0.00  0.00    -0.246 OA
ENDBRANCH  18  19
ENDBRANCH   8  18
TORSDOF 4
ENDMDL
MODEL 4
REMARK VINA RESULT:      -6.9      6.087      8.862
REMARK  Name = 
REMARK  4 active torsions:
REMARK  status: ('A' for Active; 'I' for Inactive)
REMARK    1  A    between atoms: C_2  and  C_3
REMARK    2  A    between atoms: C_12  and  C_13
REMARK    3  A    between atoms: C_12  and  C_15
REMARK    4  A    between atoms: C_15  and  C_16
REMARK                            x       y       z     vdW  Elec       q    Type
REMARK                         _______ _______ _______ _____ _____    ______ ____
ROOT
ATOM      1  C   UNL     1       1.681   5.828 -10.494  0.00  0.00    -0.005 A 
ATOM      2  C   UNL     1       3.002   6.086 -10.222  0.00  0.00    +0.077 A 
ATOM      3  C   UNL     1       3.686   5.336  -9.279  0.00  0.00    +0.015 A 
ATOM      4  C   UNL     1       4.984   5.780  -9.349  0.00  0.00    -0.002 A 
ATOM      5  C   UNL     1       6.184   5.288  -8.647  0.00  0.00    +0.060 C 
ATOM      6  C   UNL     1       7.383   5.176  -9.547  0.00  0.00    +0.147 C 
ATOM      7  O   UNL     1       7.110   5.388 -10.880  0.00  0.00    -0.352 OA
ATOM      8  C   UNL     1       6.471   6.584 -11.148  0.00  0.00    +0.138 C 
ATOM      9  C   UNL     1       5.147   6.604 -10.451  0.00  0.00    +0.080 A 
ATOM     10  C   UNL     1       2.977   4.598  -8.341  0.00  0.00    +0.001 A 
ATOM     11  C   UNL     1       1.603   4.510  -8.524  0.00  0.00    -0.000 A 
ATOM     12  N   UNL     1       3.895   6.848 -10.898  0.00  0.00    -0.248 NA
ATOM     13  C   UNL     1       1.008   4.939  -9.695  0.00  0.00    -0.003 A 
ENDROOT
BRANCH   1  15
ATOM     14  C   UNL     1       0.364   6.487 -11.832  0.00  0.00    +0.005 C 
ATOM     15  C   UNL     1       0.967   6.467 -11.640  0.00  0.00    +0.028 C 
ENDBRANCH   1  15
BRANCH   8  16
ATOM     16  C   UNL     1       7.257   7.795 -10.727  0.00  0.00    +0.034 C 
ATOM     17  C   UNL     1       6.555   9.027 -11.277  0.00  0.00    +0.003 C 
ENDBRANCH   8  16
BRANCH   8  18
ATOM     18  C   UNL     1       6.306   6.663 -12.655  0.00  0.00    +0.147 C 
BRANCH  18  19
ATOM     19  C   UNL     1       6.235   5.325 -13.282  0.00  0.00    +0.368 C 
ATOM     20  O   UNL     1       7.399   4.888 -13.919  0.00  0.00    -0.246 OA
ATOM     21  O   UNL     1       5.178   4.675 -13.433  0.00  0.00    -0.246 OA
ENDBRANCH  18  19
ENDBRANCH   8  18
TORSDOF 4
ENDMDL
MODEL 5
REMARK VINA RESULT:      -6.8      4.102      5.682
REMARK  Name = 
REMARK  4 active torsions:
REMARK  status: ('A' for Active; 'I' for Inactive)
REMARK    1  A    between atoms: C_2  and  C_3
REMARK    2  A    between atoms: C_12  and  C_13
REMARK    3  A    between atoms: C_12  and  C_15
REMARK    4  A    between atoms: C_15  and  C_16
REMARK                            x       y       z     vdW  Elec       q    Type
REMARK                         _______ _______ _______ _____ _____    ______ ____
ROOT
ATOM      1  C   UNL     1       6.243   6.194 -11.428  0.00  0.00    -0.005 A 
ATOM      2  C   UNL     1       4.943   6.209 -10.983  0.00  0.00    +0.077 A 
ATOM      3  C   UNL     1       3.916   5.764 -11.799  0.00  0.00    +0.015 A 
ATOM      4  C   UNL     1       2.794   5.809 -11.009  0.00  0.00    -0.002 A 
ATOM      5  C   UNL     1       1.418   5.367 -11.305  0.00  0.00    +0.060 C 
ATOM      6  C   UNL     1       0.789   4.611 -10.168  0.00  0.00    +0.147 C 
ATOM      7  O   UNL     1       1.653   4.323  -9.135  0.00  0.00    -0.352 OA
ATOM      8  C   UNL     1       2.311   5.424  -8.619  0.00  0.00    +0.138 C 
ATOM      9  C   UNL     1       3.148   6.048  -9.690  0.00  0.00    +0.080 A 
ATOM     10  C   UNL     1       4.118   5.668 -13.169  0.00  0.00    +0.001 A 
ATOM     11  C   UNL     1       5.417   5.852 -13.624  0.00  0.00    -0.000 A 
ATOM     12  N   UNL     1       4.456   6.388  -9.732  0.00  0.00    -0.248 NA
ATOM     13  C   UNL     1       6.482   5.900 -12.745  0.00  0.00    -0.003 A 
ENDROOT
BRANCH   1  15
ATOM     14  C   UNL     1       7.775   6.965 -10.418  0.00  0.00    +0.005 C 
ATOM     15  C   UNL     1       7.395   6.467 -10.517  0.00  0.00    +0.028 C 
ENDBRANCH   1  15
BRANCH   8  16
ATOM     16  C   UNL     1       1.387   6.469  -8.057  0.00  0.00    +0.034 C 
ATOM     17  C   UNL     1       2.192   7.739  -7.835  0.00  0.00    +0.003 C 
ENDBRANCH   8  16
BRANCH   8  18
ATOM     18  C   UNL     1       3.166   4.922  -7.469  0.00  0.00    +0.147 C 
BRANCH  18  19
ATOM     19  C   UNL     1       2.353   4.501  -6.307  0.00  0.00    +0.368 C 
ATOM     20  O   UNL     1       2.513   5.260  -5.145  0.00  0.00    -0.246 OA
ATOM     21  O   UNL     1       1.703   3.435  -6.253  0.00  0.00    -0.246 OA
ENDBRANCH  18  19
ENDBRANCH   8  18
TORSDOF 4
ENDMDL
MODEL 6
REMARK VINA RESULT:      -6.8      2.367      5.891
REMARK  Name = 
REMARK  4 active torsions:
REMARK  status: ('A' for Active; 'I' for Inactive)
REMARK    1  A    between atoms: C_2  and  C_3
REMARK    2  A    between atoms: C_12  and  C_13
REMARK    3  A    between atoms: C_12  and  C_15
REMARK    4  A    between atoms: C_15  and  C_16
REMARK                            x       y       z     vdW  Elec       q    Type
REMARK                         _______ _______ _______ _____ _____    ______ ____
ROOT
ATOM      1  C   UNL     1      -1.904   5.944  -4.472  0.00  0.00    -0.005 A 
ATOM      2  C   UNL     1      -0.745   6.289  -3.822  0.00  0.00    +0.077 A 
ATOM      3  C   UNL     1      -0.521   5.880  -2.517  0.00  0.00    +0.015 A 
ATOM      4  C   UNL     1       0.757   6.294  -2.232  0.00  0.00    -0.002 A 
ATOM      5  C   UNL     1       1.573   6.059  -1.025  0.00  0.00    +0.060 C 
ATOM      6  C   UNL     1       2.993   5.685  -1.344  0.00  0.00    +0.147 C 
ATOM      7  O   UNL     1       3.233   5.465  -2.682  0.00  0.00    -0.352 OA
ATOM      8  C   UNL     1       2.859   6.510  -3.507  0.00  0.00    +0.138 C 
ATOM      9  C   UNL     1       1.384   6.733  -3.387  0.00  0.00    +0.080 A 
ATOM     10  C   UNL     1      -1.590   5.465  -1.734  0.00  0.00    +0.001 A 
ATOM     11  C   UNL     1      -2.811   5.309  -2.375  0.00  0.00    -0.000 A 
ATOM     12  N   UNL     1       0.404   6.811  -4.313  0.00  0.00    -0.248 NA
ATOM     13  C   UNL     1      -2.905   5.342  -3.753  0.00  0.00    -0.003 A 
ENDROOT
BRANCH   1  15
ATOM     14  C   UNL     1      -2.304   5.833  -6.418  0.00  0.00    +0.005 C 
ATOM     15  C   UNL     1      -2.095   6.185  -5.934  0.00  0.00    +0.028 C 
ENDBRANCH   1  15
BRANCH   8  16
ATOM     16  C   UNL     1       3.569   7.801  -3.203  0.00  0.00    +0.034 C 
ATOM     17  C   UNL     1       4.933   7.757  -3.874  0.00  0.00    +0.003 C 
ENDBRANCH   8  16
BRANCH   8  18
ATOM     18  C   UNL     1       3.246   6.112  -4.919  0.00  0.00    +0.147 C 
BRANCH  18  19
ATOM     19  C   UNL     1       3.279   4.643  -5.099  0.00  0.00    +0.368 C 
ATOM     20  O   UNL     1       4.456   4.006  -4.697  0.00  0.00    -0.246 OA
ATOM     21  O   UNL     1       2.424   3.995  -5.739  0.00  0.00    -0.246 OA
ENDBRANCH  18  19
ENDBRANCH   8  18
TORSDOF 4
ENDMDL
MODEL 7
REMARK VINA RESULT:      -6.7      2.480      5.601
REMARK  Name = 
REMARK  4 active torsions:
REMARK  status: ('A' for Active; 'I' for Inactive)
REMARK    1  A    between atoms: C_2  and  C_3
REMARK    2  A    between atoms: C_12  and  C_13
REMARK    3  A    between atoms: C_12  and  C_15
REMARK    4  A    between atoms: C_15  and  C_16
REMARK                            x       y       z     vdW  Elec       q    Type
REMARK                         _______ _______ _______ _____ _____    ______ ____
ROOT
ATOM      1  C   UNL     1      -0.992   5.700  -2.866  0.00  0.00    -0.005 A 
ATOM      2  C   UNL     1       0.056   6.220  -3.585  0.00  0.00    +0.077 A 
ATOM      3  C   UNL     1       1.306   6.364  -3.003  0.00  0.00    +0.015 A 
ATOM      4  C   UNL     1       2.121   6.794  -4.021  0.00  0.00    -0.002 A 
ATOM      5  C   UNL     1       3.578   7.028  -4.022  0.00  0.00    +0.060 C 
ATOM      6  C   UNL     1       4.255   6.486  -5.249  0.00  0.00    +0.147 C 
ATOM      7  O   UNL     1       3.437   5.732  -6.060  0.00  0.00    -0.352 OA
ATOM      8  C   UNL     1       2.274   6.370  -6.447  0.00  0.00    +0.138 C 
ATOM      9  C   UNL     1       1.460   6.696  -5.235  0.00  0.00    +0.080 A 
ATOM     10  C   UNL     1       1.425   6.356  -1.619  0.00  0.00    +0.001 A 
ATOM     11  C   UNL     1       0.290   6.014  -0.896  0.00  0.00    -0.000 A 
ATOM     12  N   UNL     1       0.172   6.441  -4.916  0.00  0.00    -0.248 NA
ATOM     13  C   UNL     1      -0.826   5.491  -1.521  0.00  0.00    -0.003 A 
ENDROOT
BRANCH   1  15
ATOM     14  C   UNL     1      -2.835   5.088  -3.300  0.00  0.00    +0.005 C 
ATOM     15  C   UNL     1      -2.291   5.337  -3.508  0.00  0.00    +0.028 C 
ENDBRANCH   1  15
BRANCH   8  16
ATOM     16  C   UNL     1       2.511   7.636  -7.225  0.00  0.00    +0.034 C 
ATOM     17  C   UNL     1       2.811   7.255  -8.666  0.00  0.00    +0.003 C 
ENDBRANCH   8  16
BRANCH   8  18
ATOM     18  C   UNL     1       1.537   5.415  -7.369  0.00  0.00    +0.147 C 
BRANCH  18  19
ATOM     19  C   UNL     1       2.009   4.020  -7.224  0.00  0.00    +0.368 C 
ATOM     20  O   UNL     1       2.605   3.458  -8.356  0.00  0.00    -0.246 OA
ATOM     21  O   UNL     1       1.743   3.286  -6.249  0.00  0.00    -0.246 OA
ENDBRANCH  18  19
ENDBRANCH   8  18
TORSDOF 4
ENDMDL
MODEL 8
REMARK VINA RESULT:      -6.7      6.025      8.322
REMARK  Name = 
REMARK  4 active torsions:
REMARK  status: ('A' for Active; 'I' for Inactive)
REMARK    1  A    between atoms: C_2  and  C_3
REMARK    2  A    between atoms: C_12  and  C_13
REMARK    3  A    between atoms: C_12  and  C_15
REMARK    4  A    between atoms: C_15  and  C_16
REMARK                            x       y       z     vdW  Elec       q    Type
REMARK                         _______ _______ _______ _____ _____    ______ ____
ROOT
ATOM      1  C   UNL     1       6.324   5.635 -11.732  0.00  0.00    -0.005 A 
ATOM      2  C   UNL     1       4.964   5.480 -11.616  0.00  0.00    +0.077 A 
ATOM      3  C   UNL     1       4.323   5.763 -10.420  0.00  0.00    +0.015 A 
ATOM      4  C   UNL     1       2.986   5.614 -10.694  0.00  0.00    -0.002 A 
ATOM      5  C   UNL     1       1.817   5.873  -9.832  0.00  0.00    +0.060 C 
ATOM      6  C   UNL     1       0.710   6.594 -10.550  0.00  0.00    +0.147 C 
ATOM      7  O   UNL     1       1.045   7.028 -11.814  0.00  0.00    -0.352 OA
ATOM      8  C   UNL     1       1.534   6.037 -12.645  0.00  0.00    +0.138 C 
ATOM      9  C   UNL     1       2.791   5.475 -12.059  0.00  0.00    +0.080 A 
ATOM     10  C   UNL     1       5.058   5.826  -9.244  0.00  0.00    +0.001 A 
ATOM     11  C   UNL     1       6.441   5.782  -9.368  0.00  0.00    -0.000 A 
ATOM     12  N   UNL     1       4.027   5.295 -12.575  0.00  0.00    -0.248 NA
ATOM     13  C   UNL     1       7.053   5.901 -10.601  0.00  0.00    -0.003 A 
ENDROOT
BRANCH   1  15
ATOM     14  C   UNL     1       7.629   5.575 -13.233  0.00  0.00    +0.005 C 
ATOM     15  C   UNL     1       7.024   5.542 -13.048  0.00  0.00    +0.028 C 
ENDBRANCH   1  15
BRANCH   8  16
ATOM     16  C   UNL     1       0.564   4.911 -12.877  0.00  0.00    +0.034 C 
ATOM     17  C   UNL     1       1.052   4.108 -14.072  0.00  0.00    +0.003 C 
ENDBRANCH   8  16
BRANCH   8  18
ATOM     18  C   UNL     1       1.792   6.686 -13.992  0.00  0.00    +0.147 C 
BRANCH  18  19
ATOM     19  C   UNL     1       0.754   7.679 -14.345  0.00  0.00    +0.368 C 
ATOM     20  O   UNL     1      -0.232   7.240 -15.233  0.00  0.00    -0.246 OA
ATOM     21  O   UNL     1       0.815   8.893 -14.056  0.00  0.00    -0.246 OA
ENDBRANCH  18  19
ENDBRANCH   8  18
TORSDOF 4
ENDMDL
MODEL 9
REMARK VINA RESULT:      -6.6      2.436      4.818
REMARK  Name = 
REMARK  4 active torsions:
REMARK  status: ('A' for Active; 'I' for Inactive)
REMARK    1  A    between atoms: C_2  and  C_3
REMARK    2  A    between atoms: C_12  and  C_13
REMARK    3  A    between atoms: C_12  and  C_15
REMARK    4  A    between atoms: C_15  and  C_16
REMARK                            x       y       z     vdW  Elec       q    Type
REMARK                         _______ _______ _______ _____ _____    ______ ____
ROOT
ATOM      1  C   UNL     1       0.305   5.309  -6.584  0.00  0.00    -0.005 A 
ATOM      2  C   UNL     1       0.437   5.791  -5.304  0.00  0.00    +0.077 A 
ATOM      3  C   UNL     1      -0.664   5.876  -4.467  0.00  0.00    +0.015 A 
ATOM      4  C   UNL     1      -0.155   6.279  -3.257  0.00  0.00    -0.002 A 
ATOM      5  C   UNL     1      -0.839   6.451  -1.961  0.00  0.00    +0.060 C 
ATOM      6  C   UNL     1      -0.054   5.892  -0.807  0.00  0.00    +0.147 C 
ATOM      7  O   UNL     1       1.066   5.181  -1.178  0.00  0.00    -0.352 OA
ATOM      8  C   UNL     1       1.932   5.872  -2.004  0.00  0.00    +0.138 C 
ATOM      9  C   UNL     1       1.229   6.221  -3.278  0.00  0.00    +0.080 A 
ATOM     10  C   UNL     1      -1.943   5.849  -5.007  0.00  0.00    +0.001 A 
ATOM     11  C   UNL     1      -2.044   5.550  -6.359  0.00  0.00    -0.000 A 
ATOM     12  N   UNL     1       1.554   6.019  -4.574  0.00  0.00    -0.248 NA
ATOM     13  C   UNL     1      -0.957   5.082  -7.072  0.00  0.00    -0.003 A 
ENDROOT
BRANCH   1  15
ATOM     14  C   UNL     1       1.687   5.210  -8.011  0.00  0.00    +0.005 C 
ATOM     15  C   UNL     1       1.488   5.009  -7.444  0.00  0.00    +0.028 C 
ENDBRANCH   1  15
BRANCH   8  16
ATOM     16  C   UNL     1       2.473   7.134  -1.389  0.00  0.00    +0.034 C 
ATOM     17  C   UNL     1       3.512   7.712  -2.337  0.00  0.00    +0.003 C 
ENDBRANCH   8  16
BRANCH   8  18
ATOM     18  C   UNL     1       3.117   4.958  -2.257  0.00  0.00    +0.147 C 
BRANCH  18  19
ATOM     19  C   UNL     1       3.648   4.369  -1.008  0.00  0.00    +0.368 C 
ATOM     20  O   UNL     1       4.738   5.033  -0.437  0.00  0.00    -0.246 OA
ATOM     21  O   UNL     1       3.313   3.252  -0.560  0.00  0.00    -0.246 OA
ENDBRANCH  18  19
ENDBRANCH   8  18
TORSDOF 4
ENDMDL
