MODEL 1
REMARK VINA RESULT:      -6.4      0.000      0.000
REMARK  Name = 
REMARK  2 active torsions:
REMARK  status: ('A' for Active; 'I' for Inactive)
REMARK    1  A    between atoms: C_2  and  N_4
REMARK    2  A    between atoms: C_7  and  S_8
REMARK                            x       y       z     vdW  Elec       q    Type
REMARK                         _______ _______ _______ _____ _____    ______ ____
ROOT
ATOM      1  N   UNL     1       7.482   5.417 -10.521  0.00  0.00    -0.154 NA
ATOM      2  C   UNL     1       6.350   5.939 -10.165  0.00  0.00    +0.186 A 
ATOM      3  N   UNL     1       5.760   7.071 -10.627  0.00  0.00    -0.227 N 
ATOM      4  C   UNL     1       6.465   8.024 -11.485  0.00  0.00    +0.156 C 
ATOM      5  N   UNL     1       4.454   6.953 -10.654  0.00  0.00    -0.140 NA
ATOM      6  C   UNL     1       3.940   6.544  -9.481  0.00  0.00    +0.257 A 
ATOM      7  S   UNL     1       5.185   5.462  -8.992  0.00  0.00    -0.011 S 
ENDROOT
BRANCH   6   8
ATOM      8  S   UNL     1       2.296   6.716  -8.875  0.00  0.00    +0.118 S 
ATOM      9  O   UNL     1       1.314   6.779 -10.024  0.00  0.00    -0.148 OA
ATOM     10  O   UNL     1       2.027   5.491  -8.044  0.00  0.00    -0.148 OA
ATOM     11  N   UNL     1       2.164   8.113  -7.901  0.00  0.00    +0.041 NA
ENDBRANCH   6   8
BRANCH   1  13
ATOM     12  C   UNL     1       9.207   5.889 -12.288  0.00  0.00    +0.097 C 
ATOM     13  C   UNL     1       7.903   5.307 -11.868  0.00  0.00    +0.248 C 
ATOM     14  O   UNL     1       7.212   4.696 -12.735  0.00  0.00    -0.273 OA
ENDBRANCH   1  13
TORSDOF 2
ENDMDL
MODEL 2
REMARK VINA RESULT:      -5.8      5.632      7.447
REMARK  Name = 
REMARK  2 active torsions:
REMARK  status: ('A' for Active; 'I' for Inactive)
REMARK    1  A    between atoms: C_2  and  N_4
REMARK    2  A    between atoms: C_7  and  S_8
REMARK                            x       y       z     vdW  Elec       q    Type
REMARK                         _______ _______ _______ _____ _____    ______ ____
ROOT
ATOM      1  N   UNL     1       0.238   5.694  -8.068  0.00  0.00    -0.154 NA
ATOM      2  C   UNL     1      -0.097   5.456  -6.837  0.00  0.00    +0.186 A 
ATOM      3  N   UNL     1       0.613   4.804  -5.881  0.00  0.00    -0.227 N 
ATOM      4  C   UNL     1       1.829   4.050  -6.189  0.00  0.00    +0.156 C 
ATOM      5  N   UNL     1       0.404   5.321  -4.694  0.00  0.00    -0.140 NA
ATOM      6  C   UNL     1      -0.902   5.424  -4.390  0.00  0.00    +0.257 A 
ATOM      7  S   UNL     1      -1.522   5.819  -5.945  0.00  0.00    -0.011 S 
ENDROOT
BRANCH   6   8
ATOM      8  S   UNL     1      -1.659   5.565  -2.806  0.00  0.00    +0.118 S 
ATOM      9  O   UNL     1      -2.921   4.733  -2.749  0.00  0.00    -0.148 OA
ATOM     10  O   UNL     1      -0.658   5.037  -1.817  0.00  0.00    -0.148 OA
ATOM     11  N   UNL     1      -2.008   7.201  -2.458  0.00  0.00    +0.041 NA
ENDBRANCH   6   8
BRANCH   1  13
ATOM     12  C   UNL     1       2.071   7.406  -7.897  0.00  0.00    +0.097 C 
ATOM     13  C   UNL     1       1.523   6.139  -8.456  0.00  0.00    +0.248 C 
ATOM     14  O   UNL     1       2.247   5.474  -9.254  0.00  0.00    -0.273 OA
ENDBRANCH   1  13
TORSDOF 2
ENDMDL
MODEL 3
REMARK VINA RESULT:      -5.7      5.840      9.054
REMARK  Name = 
REMARK  2 active torsions:
REMARK  status: ('A' for Active; 'I' for Inactive)
REMARK    1  A    between atoms: C_2  and  N_4
REMARK    2  A    between atoms: C_7  and  S_8
REMARK                            x       y       z     vdW  Elec       q    Type
REMARK                         _______ _______ _______ _____ _____    ______ ____
ROOT
ATOM      1  N   UNL     1      -0.792   5.025  -2.953  0.00  0.00    -0.154 NA
ATOM      2  C   UNL     1      -0.162   5.396  -4.024  0.00  0.00    +0.186 A 
ATOM      3  N   UNL     1      -0.682   5.757  -5.225  0.00  0.00    -0.227 N 
ATOM      4  C   UNL     1      -2.092   5.555  -5.559  0.00  0.00    +0.156 C 
ATOM      5  N   UNL     1       0.033   6.699  -5.792  0.00  0.00    -0.140 NA
ATOM      6  C   UNL     1       1.342   6.393  -5.864  0.00  0.00    +0.257 A 
ATOM      7  S   UNL     1       1.515   5.554  -4.372  0.00  0.00    -0.011 S 
ENDROOT
BRANCH   6   8
ATOM      8  S   UNL     1       2.574   7.056  -6.933  0.00  0.00    +0.118 S 
ATOM      9  O   UNL     1       2.034   8.254  -7.681  0.00  0.00    -0.148 OA
ATOM     10  O   UNL     1       3.711   7.480  -6.046  0.00  0.00    -0.148 OA
ATOM     11  N   UNL     1       3.113   5.862  -8.030  0.00  0.00    +0.041 NA
ENDBRANCH   6   8
BRANCH   1  13
ATOM     12  C   UNL     1      -1.944   7.138  -2.226  0.00  0.00    +0.097 C 
ATOM     13  C   UNL     1      -1.954   5.669  -2.466  0.00  0.00    +0.248 C 
ATOM     14  O   UNL     1      -3.028   5.034  -2.251  0.00  0.00    -0.273 OA
ENDBRANCH   1  13
TORSDOF 2
ENDMDL
MODEL 4
REMARK VINA RESULT:      -5.5      9.500     11.086
REMARK  Name = 
REMARK  2 active torsions:
REMARK  status: ('A' for Active; 'I' for Inactive)
REMARK    1  A    between atoms: C_2  and  N_4
REMARK    2  A    between atoms: C_7  and  S_8
REMARK                            x       y       z     vdW  Elec       q    Type
REMARK                         _______ _______ _______ _____ _____    ______ ____
ROOT
ATOM      1  N   UNL     1      -1.393   6.432  -3.108  0.00  0.00    -0.154 NA
ATOM      2  C   UNL     1      -0.289   6.199  -2.470  0.00  0.00    +0.186 A 
ATOM      3  N   UNL     1      -0.095   6.095  -1.130  0.00  0.00    -0.227 N 
ATOM      4  C   UNL     1      -1.125   6.469  -0.161  0.00  0.00    +0.156 C 
ATOM      5  N   UNL     1       0.830   5.209  -0.848  0.00  0.00    -0.140 NA
ATOM      6  C   UNL     1       1.975   5.412  -1.523  0.00  0.00    +0.257 A 
ATOM      7  S   UNL     1       1.325   5.964  -3.017  0.00  0.00    -0.011 S 
ENDROOT
BRANCH   6   8
ATOM      8  S   UNL     1       3.598   4.844  -1.142  0.00  0.00    +0.118 S 
ATOM      9  O   UNL     1       3.544   3.458  -0.539  0.00  0.00    -0.148 OA
ATOM     10  O   UNL     1       4.342   4.801  -2.448  0.00  0.00    -0.148 OA
ATOM     11  N   UNL     1       4.372   5.929  -0.074  0.00  0.00    +0.041 NA
ENDBRANCH   6   8
BRANCH   1  13
ATOM     12  C   UNL     1      -3.852   6.640  -2.625  0.00  0.00    +0.097 C 
ATOM     13  C   UNL     1      -2.625   5.812  -2.791  0.00  0.00    +0.248 C 
ATOM     14  O   UNL     1      -2.729   4.557  -2.668  0.00  0.00    -0.273 OA
ENDBRANCH   1  13
TORSDOF 2
ENDMDL
MODEL 5
REMARK VINA RESULT:      -5.5      7.267      9.686
REMARK  Name = 
REMARK  2 active torsions:
REMARK  status: ('A' for Active; 'I' for Inactive)
REMARK    1  A    between atoms: C_2  and  N_4
REMARK    2  A    between atoms: C_7  and  S_8
REMARK                            x       y       z     vdW  Elec       q    Type
REMARK                         _______ _______ _______ _____ _____    ______ ____
ROOT
ATOM      1  N   UNL     1      -1.179   5.043  -2.389  0.00  0.00    -0.154 NA
ATOM      2  C   UNL     1      -0.076   5.409  -2.966  0.00  0.00    +0.186 A 
ATOM      3  N   UNL     1       0.122   5.760  -4.262  0.00  0.00    -0.227 N 
ATOM      4  C   UNL     1      -0.897   5.552  -5.292  0.00  0.00    +0.156 C 
ATOM      5  N   UNL     1       1.030   6.700  -4.370  0.00  0.00    -0.140 NA
ATOM      6  C   UNL     1       2.176   6.397  -3.734  0.00  0.00    +0.257 A 
ATOM      7  S   UNL     1       1.530   5.568  -2.372  0.00  0.00    -0.011 S 
ENDROOT
BRANCH   6   8
ATOM      8  S   UNL     1       3.789   7.055  -3.992  0.00  0.00    +0.118 S 
ATOM      9  O   UNL     1       3.905   7.640  -5.381  0.00  0.00    -0.148 OA
ATOM     10  O   UNL     1       3.965   8.141  -2.967  0.00  0.00    -0.148 OA
ATOM     11  N   UNL     1       4.970   5.843  -3.756  0.00  0.00    +0.041 NA
ENDBRANCH   6   8
BRANCH   1  13
ATOM     12  C   UNL     1      -2.566   7.138  -2.293  0.00  0.00    +0.097 C 
ATOM     13  C   UNL     1      -2.421   5.688  -2.598  0.00  0.00    +0.248 C 
ATOM     14  O   UNL     1      -3.422   5.071  -3.069  0.00  0.00    -0.273 OA
ENDBRANCH   1  13
TORSDOF 2
ENDMDL
MODEL 6
REMARK VINA RESULT:      -5.3      5.532      7.504
REMARK  Name = 
REMARK  2 active torsions:
REMARK  status: ('A' for Active; 'I' for Inactive)
REMARK    1  A    between atoms: C_2  and  N_4
REMARK    2  A    between atoms: C_7  and  S_8
REMARK                            x       y       z     vdW  Elec       q    Type
REMARK                         _______ _______ _______ _____ _____    ______ ____
ROOT
ATOM      1  N   UNL     1       2.140   5.478  -6.584  0.00  0.00    -0.154 NA
ATOM      2  C   UNL     1       1.434   5.392  -5.499  0.00  0.00    +0.186 A 
ATOM      3  N   UNL     1       1.867   5.299  -4.216  0.00  0.00    -0.227 N 
ATOM      4  C   UNL     1       3.270   5.053  -3.881  0.00  0.00    +0.156 C 
ATOM      5  N   UNL     1       1.060   5.925  -3.393  0.00  0.00    -0.140 NA
ATOM      6  C   UNL     1      -0.225   5.555  -3.534  0.00  0.00    +0.257 A 
ATOM      7  S   UNL     1      -0.265   5.329  -5.239  0.00  0.00    -0.011 S 
ENDROOT
BRANCH   6   8
ATOM      8  S   UNL     1      -1.552   5.709  -2.386  0.00  0.00    +0.118 S 
ATOM      9  O   UNL     1      -2.668   4.753  -2.739  0.00  0.00    -0.148 OA
ATOM     10  O   UNL     1      -0.983   5.351  -1.041  0.00  0.00    -0.148 OA
ATOM     11  N   UNL     1      -2.130   7.316  -2.359  0.00  0.00    +0.041 NA
ENDBRANCH   6   8
BRANCH   1  13
ATOM     12  C   UNL     1       4.545   5.758  -7.260  0.00  0.00    +0.097 C 
ATOM     13  C   UNL     1       3.276   6.312  -6.712  0.00  0.00    +0.248 C 
ATOM     14  O   UNL     1       3.244   7.537  -6.398  0.00  0.00    -0.273 OA
ENDBRANCH   1  13
TORSDOF 2
ENDMDL
MODEL 7
REMARK VINA RESULT:      -5.3      3.613      3.989
REMARK  Name = 
REMARK  2 active torsions:
REMARK  status: ('A' for Active; 'I' for Inactive)
REMARK    1  A    between atoms: C_2  and  N_4
REMARK    2  A    between atoms: C_7  and  S_8
REMARK                            x       y       z     vdW  Elec       q    Type
REMARK                         _______ _______ _______ _____ _____    ______ ____
ROOT
ATOM      1  N   UNL     1       6.335   6.161 -11.798  0.00  0.00    -0.154 NA
ATOM      2  C   UNL     1       5.224   6.051 -12.457  0.00  0.00    +0.186 A 
ATOM      3  N   UNL     1       5.026   6.138 -13.798  0.00  0.00    -0.227 N 
ATOM      4  C   UNL     1       6.067   6.609 -14.712  0.00  0.00    +0.156 C 
ATOM      5  N   UNL     1       4.075   5.326 -14.194  0.00  0.00    -0.140 NA
ATOM      6  C   UNL     1       2.937   5.469 -13.492  0.00  0.00    +0.257 A 
ATOM      7  S   UNL     1       3.604   5.792 -11.940  0.00  0.00    -0.011 S 
ENDROOT
BRANCH   6   8
ATOM      8  S   UNL     1       1.298   5.007 -13.940  0.00  0.00    +0.118 S 
ATOM      9  O   UNL     1       1.252   3.551 -14.344  0.00  0.00    -0.148 OA
ATOM     10  O   UNL     1       0.455   5.221 -12.713  0.00  0.00    -0.148 OA
ATOM     11  N   UNL     1       0.727   5.997 -15.210  0.00  0.00    +0.041 NA
ENDBRANCH   6   8
BRANCH   1  13
ATOM     12  C   UNL     1       8.842   6.253 -11.970  0.00  0.00    +0.097 C 
ATOM     13  C   UNL     1       7.548   5.554 -12.203  0.00  0.00    +0.248 C 
ATOM     14  O   UNL     1       7.574   4.408 -12.740  0.00  0.00    -0.273 OA
ENDBRANCH   1  13
TORSDOF 2
ENDMDL
MODEL 8
REMARK VINA RESULT:      -5.2      8.049      9.618
REMARK  Name = 
REMARK  2 active torsions:
REMARK  status: ('A' for Active; 'I' for Inactive)
REMARK    1  A    between atoms: C_2  and  N_4
REMARK    2  A    between atoms: C_7  and  S_8
REMARK                            x       y       z     vdW  Elec       q    Type
REMARK                         _______ _______ _______ _____ _____    ______ ____
ROOT
ATOM      1  N   UNL     1      -1.508   5.496  -3.869  0.00  0.00    -0.154 NA
ATOM      2  C   UNL     1      -0.304   5.395  -3.397  0.00  0.00    +0.186 A 
ATOM      3  N   UNL     1       0.856   5.212  -4.078  0.00  0.00    -0.227 N 
ATOM      4  C   UNL     1       0.881   4.868  -5.500  0.00  0.00    +0.156 C 
ATOM      5  N   UNL     1       1.853   5.841  -3.503  0.00  0.00    -0.140 NA
ATOM      6  C   UNL     1       1.970   5.553  -2.194  0.00  0.00    +0.257 A 
ATOM      7  S   UNL     1       0.303   5.418  -1.788  0.00  0.00    -0.011 S 
ENDROOT
BRANCH   6   8
ATOM      8  S   UNL     1       3.374   5.725  -1.146  0.00  0.00    +0.118 S 
ATOM      9  O   UNL     1       4.450   6.535  -1.835  0.00  0.00    -0.148 OA
ATOM     10  O   UNL     1       2.894   6.455   0.078  0.00  0.00    -0.148 OA
ATOM     11  N   UNL     1       3.977   4.189  -0.703  0.00  0.00    +0.041 NA
ENDBRANCH   6   8
BRANCH   1  13
ATOM     12  C   UNL     1      -2.522   5.627  -6.165  0.00  0.00    +0.097 C 
ATOM     13  C   UNL     1      -1.839   6.268  -5.008  0.00  0.00    +0.248 C 
ATOM     14  O   UNL     1      -1.597   7.509  -5.066  0.00  0.00    -0.273 OA
ENDBRANCH   1  13
TORSDOF 2
ENDMDL
MODEL 9
REMARK VINA RESULT:      -5.1      6.017      7.869
REMARK  Name = 
REMARK  2 active torsions:
REMARK  status: ('A' for Active; 'I' for Inactive)
REMARK    1  A    between atoms: C_2  and  N_4
REMARK    2  A    between atoms: C_7  and  S_8
REMARK                            x       y       z     vdW  Elec       q    Type
REMARK                         _______ _______ _______ _____ _____    ______ ____
ROOT
ATOM      1  N   UNL     1       2.917   5.491  -4.627  0.00  0.00    -0.154 NA
ATOM      2  C   UNL     1       1.742   5.798  -4.171  0.00  0.00    +0.186 A 
ATOM      3  N   UNL     1       0.708   6.381  -4.830  0.00  0.00    -0.227 N 
ATOM      4  C   UNL     1       0.863   6.972  -6.160  0.00  0.00    +0.156 C 
ATOM      5  N   UNL     1      -0.446   5.923  -4.408  0.00  0.00    -0.140 NA
ATOM      6  C   UNL     1      -0.580   5.988  -3.072  0.00  0.00    +0.257 A 
ATOM      7  S   UNL     1       1.039   5.634  -2.610  0.00  0.00    -0.011 S 
ENDROOT
BRANCH   6   8
ATOM      8  S   UNL     1      -2.054   5.980  -2.108  0.00  0.00    +0.118 S 
ATOM      9  O   UNL     1      -2.918   7.171  -2.454  0.00  0.00    -0.148 OA
ATOM     10  O   UNL     1      -2.776   4.709  -2.461  0.00  0.00    -0.148 OA
ATOM     11  N   UNL     1      -1.675   5.983  -0.442  0.00  0.00    +0.041 NA
ENDBRANCH   6   8
BRANCH   1  13
ATOM     12  C   UNL     1       4.165   5.429  -6.808  0.00  0.00    +0.097 C 
ATOM     13  C   UNL     1       3.133   4.881  -5.885  0.00  0.00    +0.248 C 
ATOM     14  O   UNL     1       2.489   3.854  -6.248  0.00  0.00    -0.273 OA
ENDBRANCH   1  13
TORSDOF 2
ENDMDL
