MODEL 1
REMARK VINA RESULT:      -9.0      0.000      0.000
REMARK  Name = 
REMARK  4 active torsions:
REMARK  status: ('A' for Active; 'I' for Inactive)
REMARK    1  A    between atoms: C_2  and  C_3
REMARK    2  A    between atoms: C_2  and  C_21
REMARK    3  A    between atoms: C_5  and  C_6
REMARK    4  A    between atoms: C_16  and  C_17
REMARK                            x       y       z     vdW  Elec       q    Type
REMARK                         _______ _______ _______ _____ _____    ______ ____
ROOT
ATOM      1  C   UNL     1       0.246   5.908  -7.208  0.00  0.00    +0.012 A 
ATOM      2  C   UNL     1       1.608   6.057  -7.050  0.00  0.00    +0.016 A 
ATOM      3  C   UNL     1       2.107   6.579  -5.890  0.00  0.00    +0.001 A 
ATOM      4  C   UNL     1       3.442   6.951  -5.888  0.00  0.00    +0.000 A 
ATOM      5  C   UNL     1       4.285   6.374  -6.830  0.00  0.00    +0.005 A 
ATOM      6  C   UNL     1       3.792   5.662  -7.894  0.00  0.00    +0.089 A 
ATOM      7  C   UNL     1       2.420   5.704  -8.113  0.00  0.00    +0.085 A 
ATOM      8  N   UNL     1       1.880   5.516  -9.327  0.00  0.00    -0.241 NA
ATOM      9  C   UNL     1       0.568   5.805  -9.500  0.00  0.00    +0.152 A 
ATOM     10  C   UNL     1      -0.287   5.666  -8.408  0.00  0.00    +0.021 A 
ENDROOT
BRANCH   6  11
ATOM     11  C   UNL     1       4.612   4.851  -8.816  0.00  0.00    +0.420 C 
ATOM     12  F   UNL     1       4.808   5.512 -10.006  0.00  0.00    -0.166 F 
ATOM     13  F   UNL     1       4.029   3.600  -8.999  0.00  0.00    -0.166 F 
ATOM     14  F   UNL     1       5.813   4.608  -8.156  0.00  0.00    -0.166 F 
ENDBRANCH   6  11
BRANCH   9  15
ATOM     15  C   UNL     1       0.076   6.080 -10.858  0.00  0.00    +0.435 C 
ATOM     16  F   UNL     1       1.111   6.409 -11.709  0.00  0.00    -0.164 F 
ATOM     17  F   UNL     1      -0.910   7.046 -10.885  0.00  0.00    -0.164 F 
ATOM     18  F   UNL     1      -0.492   4.916 -11.368  0.00  0.00    -0.164 F 
ENDBRANCH   9  15
BRANCH   1  20
ATOM     19  O   UNL     1      -1.455   4.406  -6.648  0.00  0.00    -0.217 OA
ATOM     20  C   UNL     1      -0.499   5.335  -5.868  0.00  0.00    +0.190 C 
BRANCH  20  21
ATOM     21  C   UNL     1      -1.678   6.638  -5.887  0.00  0.00    +0.107 C 
ATOM     22  N   UNL     1      -0.828   7.483  -4.858  0.00  0.00    -0.217 NA
ATOM     23  C   UNL     1      -1.866   8.279  -4.201  0.00  0.00    +0.089 C 
ATOM     24  C   UNL     1      -2.243   7.464  -2.966  0.00  0.00    +0.019 C 
ATOM     25  C   UNL     1      -1.999   6.022  -3.414  0.00  0.00    +0.003 C 
ATOM     26  C   UNL     1      -2.588   5.884  -4.745  0.00  0.00    +0.020 C 
ENDBRANCH  20  21
ENDBRANCH   1  20
TORSDOF 4
ENDMDL
MODEL 2
REMARK VINA RESULT:      -8.9      2.571      5.136
REMARK  Name = 
REMARK  4 active torsions:
REMARK  status: ('A' for Active; 'I' for Inactive)
REMARK    1  A    between atoms: C_2  and  C_3
REMARK    2  A    between atoms: C_2  and  C_21
REMARK    3  A    between atoms: C_5  and  C_6
REMARK    4  A    between atoms: C_16  and  C_17
REMARK                            x       y       z     vdW  Elec       q    Type
REMARK                         _______ _______ _______ _____ _____    ______ ____
ROOT
ATOM      1  C   UNL     1       2.334   6.385  -9.167  0.00  0.00    +0.012 A 
ATOM      2  C   UNL     1       1.630   5.823 -10.210  0.00  0.00    +0.016 A 
ATOM      3  C   UNL     1       0.501   5.096  -9.959  0.00  0.00    +0.001 A 
ATOM      4  C   UNL     1      -0.010   4.341 -11.002  0.00  0.00    +0.000 A 
ATOM      5  C   UNL     1       0.330   4.701 -12.301  0.00  0.00    +0.005 A 
ATOM      6  C   UNL     1       1.334   5.600 -12.556  0.00  0.00    +0.089 A 
ATOM      7  C   UNL     1       2.134   5.987 -11.488  0.00  0.00    +0.085 A 
ATOM      8  N   UNL     1       3.397   6.413 -11.654  0.00  0.00    -0.241 NA
ATOM      9  C   UNL     1       4.181   6.544 -10.557  0.00  0.00    +0.152 A 
ATOM     10  C   UNL     1       3.570   6.858  -9.344  0.00  0.00    +0.021 A 
ENDROOT
BRANCH   6  11
ATOM     11  C   UNL     1       1.619   6.189 -13.880  0.00  0.00    +0.420 C 
ATOM     12  F   UNL     1       2.880   5.844 -14.308  0.00  0.00    -0.166 F 
ATOM     13  F   UNL     1       1.438   7.568 -13.838  0.00  0.00    -0.166 F 
ATOM     14  F   UNL     1       0.633   5.711 -14.739  0.00  0.00    -0.166 F 
ENDBRANCH   6  11
BRANCH   9  15
ATOM     15  C   UNL     1       5.641   6.525 -10.723  0.00  0.00    +0.435 C 
ATOM     16  F   UNL     1       6.133   7.790 -10.977  0.00  0.00    -0.164 F 
ATOM     17  F   UNL     1       6.059   5.632 -11.689  0.00  0.00    -0.164 F 
ATOM     18  F   UNL     1       6.219   6.117  -9.525  0.00  0.00    -0.164 F 
ENDBRANCH   9  15
BRANCH   1  20
ATOM     19  O   UNL     1       2.222   8.343  -7.895  0.00  0.00    -0.217 OA
ATOM     20  C   UNL     1       1.370   7.061  -8.030  0.00  0.00    +0.190 C 
BRANCH  20  21
ATOM     21  C   UNL     1       2.254   6.284  -6.724  0.00  0.00    +0.107 C 
ATOM     22  N   UNL     1       1.252   5.062  -6.714  0.00  0.00    -0.217 NA
ATOM     23  C   UNL     1       1.350   4.613  -5.324  0.00  0.00    +0.089 C 
ATOM     24  C   UNL     1       0.211   5.339  -4.611  0.00  0.00    +0.019 C 
ATOM     25  C   UNL     1       0.082   6.643  -5.402  0.00  0.00    +0.003 C 
ATOM     26  C   UNL     1       1.436   7.157  -5.598  0.00  0.00    +0.020 C 
ENDBRANCH  20  21
ENDBRANCH   1  20
TORSDOF 4
ENDMDL
MODEL 3
REMARK VINA RESULT:      -8.6      3.473      4.444
REMARK  Name = 
REMARK  4 active torsions:
REMARK  status: ('A' for Active; 'I' for Inactive)
REMARK    1  A    between atoms: C_2  and  C_3
REMARK    2  A    between atoms: C_2  and  C_21
REMARK    3  A    between atoms: C_5  and  C_6
REMARK    4  A    between atoms: C_16  and  C_17
REMARK                            x       y       z     vdW  Elec       q    Type
REMARK                         _______ _______ _______ _____ _____    ______ ____
ROOT
ATOM      1  C   UNL     1       3.306   5.621  -9.286  0.00  0.00    +0.012 A 
ATOM      2  C   UNL     1       4.408   5.861 -10.079  0.00  0.00    +0.016 A 
ATOM      3  C   UNL     1       5.620   6.121  -9.503  0.00  0.00    +0.001 A 
ATOM      4  C   UNL     1       6.619   6.611 -10.328  0.00  0.00    +0.000 A 
ATOM      5  C   UNL     1       6.516   6.377 -11.694  0.00  0.00    +0.005 A 
ATOM      6  C   UNL     1       5.354   5.912 -12.257  0.00  0.00    +0.089 A 
ATOM      7  C   UNL     1       4.224   5.871 -11.450  0.00  0.00    +0.085 A 
ATOM      8  N   UNL     1       2.980   5.942 -11.952  0.00  0.00    -0.241 NA
ATOM      9  C   UNL     1       1.950   6.133 -11.094  0.00  0.00    +0.152 A 
ATOM     10  C   UNL     1       2.072   5.638  -9.797  0.00  0.00    +0.021 A 
ENDROOT
BRANCH   6  11
ATOM     11  C   UNL     1       5.224   5.445 -13.652  0.00  0.00    +0.420 C 
ATOM     12  F   UNL     1       4.680   6.427 -14.446  0.00  0.00    -0.166 F 
ATOM     13  F   UNL     1       4.484   4.266 -13.694  0.00  0.00    -0.166 F 
ATOM     14  F   UNL     1       6.506   5.094 -14.066  0.00  0.00    -0.166 F 
ENDBRANCH   6  11
BRANCH   9  15
ATOM     15  C   UNL     1       0.691   6.690 -11.611  0.00  0.00    +0.435 C 
ATOM     16  F   UNL     1       0.891   7.356 -12.803  0.00  0.00    -0.164 F 
ATOM     17  F   UNL     1       0.049   7.502 -10.696  0.00  0.00    -0.164 F 
ATOM     18  F   UNL     1      -0.177   5.640 -11.891  0.00  0.00    -0.164 F 
ENDBRANCH   9  15
BRANCH   1  20
ATOM     19  O   UNL     1       2.511   3.645  -8.326  0.00  0.00    -0.217 OA
ATOM     20  C   UNL     1       3.632   4.658  -8.004  0.00  0.00    +0.190 C 
BRANCH  20  21
ATOM     21  C   UNL     1       2.560   5.577  -6.957  0.00  0.00    +0.107 C 
ATOM     22  N   UNL     1       3.701   6.620  -6.630  0.00  0.00    -0.217 NA
ATOM     23  C   UNL     1       3.300   7.088  -5.302  0.00  0.00    +0.089 C 
ATOM     24  C   UNL     1       4.073   6.192  -4.336  0.00  0.00    +0.019 C 
ATOM     25  C   UNL     1       4.204   4.879  -5.112  0.00  0.00    +0.003 C 
ATOM     26  C   UNL     1       2.891   4.590  -5.686  0.00  0.00    +0.020 C 
ENDBRANCH  20  21
ENDBRANCH   1  20
TORSDOF 4
ENDMDL
MODEL 4
REMARK VINA RESULT:      -8.6      3.459      7.295
REMARK  Name = 
REMARK  4 active torsions:
REMARK  status: ('A' for Active; 'I' for Inactive)
REMARK    1  A    between atoms: C_2  and  C_3
REMARK    2  A    between atoms: C_2  and  C_21
REMARK    3  A    between atoms: C_5  and  C_6
REMARK    4  A    between atoms: C_16  and  C_17
REMARK                            x       y       z     vdW  Elec       q    Type
REMARK                         _______ _______ _______ _____ _____    ______ ____
ROOT
ATOM      1  C   UNL     1       4.087   6.073  -8.254  0.00  0.00    +0.012 A 
ATOM      2  C   UNL     1       2.730   6.089  -8.497  0.00  0.00    +0.016 A 
ATOM      3  C   UNL     1       2.266   6.311  -9.763  0.00  0.00    +0.001 A 
ATOM      4  C   UNL     1       0.914   6.580  -9.902  0.00  0.00    +0.000 A 
ATOM      5  C   UNL     1       0.055   6.163  -8.892  0.00  0.00    +0.005 A 
ATOM      6  C   UNL     1       0.529   5.735  -7.678  0.00  0.00    +0.089 A 
ATOM      7  C   UNL     1       1.882   5.919  -7.417  0.00  0.00    +0.085 A 
ATOM      8  N   UNL     1       2.364   6.037  -6.170  0.00  0.00    -0.241 NA
ATOM      9  C   UNL     1       3.645   6.447  -6.011  0.00  0.00    +0.152 A 
ATOM     10  C   UNL     1       4.566   6.134  -7.009  0.00  0.00    +0.021 A 
ENDROOT
BRANCH   6  11
ATOM     11  C   UNL     1      -0.291   5.088  -6.635  0.00  0.00    +0.420 C 
ATOM     12  F   UNL     1       0.394   4.052  -6.046  0.00  0.00    -0.166 F 
ATOM     13  F   UNL     1      -1.507   4.675  -7.172  0.00  0.00    -0.166 F 
ATOM     14  F   UNL     1      -0.611   6.085  -5.717  0.00  0.00    -0.166 F 
ENDBRANCH   6  11
BRANCH   9  15
ATOM     15  C   UNL     1       4.044   7.043  -4.727  0.00  0.00    +0.435 C 
ATOM     16  F   UNL     1       2.946   7.480  -4.015  0.00  0.00    -0.164 F 
ATOM     17  F   UNL     1       4.971   8.056  -4.872  0.00  0.00    -0.164 F 
ATOM     18  F   UNL     1       4.646   6.059  -3.950  0.00  0.00    -0.164 F 
ENDBRANCH   9  15
BRANCH   1  20
ATOM     19  O   UNL     1       5.843   4.537  -8.394  0.00  0.00    -0.217 OA
ATOM     20  C   UNL     1       4.938   5.276  -9.404  0.00  0.00    +0.190 C 
BRANCH  20  21
ATOM     21  C   UNL     1       6.097   6.590  -9.549  0.00  0.00    +0.107 C 
ATOM     22  N   UNL     1       5.304   7.215 -10.763  0.00  0.00    -0.217 NA
ATOM     23  C   UNL     1       6.372   7.906 -11.488  0.00  0.00    +0.089 C 
ATOM     24  C   UNL     1       6.838   6.891 -12.531  0.00  0.00    +0.019 C 
ATOM     25  C   UNL     1       6.584   5.547 -11.845  0.00  0.00    +0.003 C 
ATOM     26  C   UNL     1       7.088   5.665 -10.478  0.00  0.00    +0.020 C 
ENDBRANCH  20  21
ENDBRANCH   1  20
TORSDOF 4
ENDMDL
MODEL 5
REMARK VINA RESULT:      -8.5      3.978      6.797
REMARK  Name = 
REMARK  4 active torsions:
REMARK  status: ('A' for Active; 'I' for Inactive)
REMARK    1  A    between atoms: C_2  and  C_3
REMARK    2  A    between atoms: C_2  and  C_21
REMARK    3  A    between atoms: C_5  and  C_6
REMARK    4  A    between atoms: C_16  and  C_17
REMARK                            x       y       z     vdW  Elec       q    Type
REMARK                         _______ _______ _______ _____ _____    ______ ____
ROOT
ATOM      1  C   UNL     1       1.268   5.841  -6.159  0.00  0.00    +0.012 A 
ATOM      2  C   UNL     1       0.139   6.018  -5.387  0.00  0.00    +0.016 A 
ATOM      3  C   UNL     1      -1.087   6.120  -5.983  0.00  0.00    +0.001 A 
ATOM      4  C   UNL     1      -2.138   6.559  -5.195  0.00  0.00    +0.000 A 
ATOM      5  C   UNL     1      -2.026   6.420  -3.816  0.00  0.00    +0.005 A 
ATOM      6  C   UNL     1      -0.831   6.107  -3.221  0.00  0.00    +0.089 A 
ATOM      7  C   UNL     1       0.307   6.129  -4.019  0.00  0.00    +0.085 A 
ATOM      8  N   UNL     1       1.532   6.354  -3.517  0.00  0.00    -0.241 NA
ATOM      9  C   UNL     1       2.548   6.594  -4.380  0.00  0.00    +0.152 A 
ATOM     10  C   UNL     1       2.488   6.011  -5.645  0.00  0.00    +0.021 A 
ENDROOT
BRANCH   6  11
ATOM     11  C   UNL     1      -0.669   5.742  -1.799  0.00  0.00    +0.420 C 
ATOM     12  F   UNL     1      -0.212   6.813  -1.068  0.00  0.00    -0.166 F 
ATOM     13  F   UNL     1       0.164   4.633  -1.683  0.00  0.00    -0.166 F 
ATOM     14  F   UNL     1      -1.920   5.314  -1.363  0.00  0.00    -0.166 F 
ENDBRANCH   6  11
BRANCH   9  15
ATOM     15  C   UNL     1       3.739   7.304  -3.894  0.00  0.00    +0.435 C 
ATOM     16  F   UNL     1       3.404   8.263  -2.960  0.00  0.00    -0.164 F 
ATOM     17  F   UNL     1       4.490   7.853  -4.914  0.00  0.00    -0.164 F 
ATOM     18  F   UNL     1       4.562   6.393  -3.238  0.00  0.00    -0.164 F 
ENDBRANCH   9  15
BRANCH   1  20
ATOM     19  O   UNL     1       2.383   4.031  -7.130  0.00  0.00    -0.217 OA
ATOM     20  C   UNL     1       1.052   4.773  -7.381  0.00  0.00    +0.190 C 
BRANCH  20  21
ATOM     21  C   UNL     1       1.818   5.847  -8.542  0.00  0.00    +0.107 C 
ATOM     22  N   UNL     1       0.418   6.392  -9.030  0.00  0.00    -0.217 NA
ATOM     23  C   UNL     1       0.718   6.782 -10.409  0.00  0.00    +0.089 C 
ATOM     24  C   UNL     1       0.342   5.556 -11.238  0.00  0.00    +0.019 C 
ATOM     25  C   UNL     1       0.607   4.394 -10.279  0.00  0.00    +0.003 C 
ATOM     26  C   UNL     1       1.906   4.643  -9.657  0.00  0.00    +0.020 C 
ENDBRANCH  20  21
ENDBRANCH   1  20
TORSDOF 4
ENDMDL
MODEL 6
REMARK VINA RESULT:      -8.2      3.727      5.214
REMARK  Name = 
REMARK  4 active torsions:
REMARK  status: ('A' for Active; 'I' for Inactive)
REMARK    1  A    between atoms: C_2  and  C_3
REMARK    2  A    between atoms: C_2  and  C_21
REMARK    3  A    between atoms: C_5  and  C_6
REMARK    4  A    between atoms: C_16  and  C_17
REMARK                            x       y       z     vdW  Elec       q    Type
REMARK                         _______ _______ _______ _____ _____    ______ ____
ROOT
ATOM      1  C   UNL     1       1.300   6.485  -4.087  0.00  0.00    +0.012 A 
ATOM      2  C   UNL     1       1.718   6.478  -5.400  0.00  0.00    +0.016 A 
ATOM      3  C   UNL     1       3.043   6.639  -5.695  0.00  0.00    +0.001 A 
ATOM      4  C   UNL     1       3.370   6.889  -7.018  0.00  0.00    +0.000 A 
ATOM      5  C   UNL     1       2.463   6.511  -8.001  0.00  0.00    +0.005 A 
ATOM      6  C   UNL     1       1.179   6.142  -7.689  0.00  0.00    +0.089 A 
ATOM      7  C   UNL     1       0.753   6.350  -6.382  0.00  0.00    +0.085 A 
ATOM      8  N   UNL     1      -0.541   6.528  -6.068  0.00  0.00    -0.241 NA
ATOM      9  C   UNL     1      -0.847   6.956  -4.820  0.00  0.00    +0.152 A 
ATOM     10  C   UNL     1       0.007   6.607  -3.776  0.00  0.00    +0.021 A 
ENDROOT
BRANCH   6  11
ATOM     11  C   UNL     1       0.224   5.535  -8.637  0.00  0.00    +0.420 C 
ATOM     12  F   UNL     1      -0.260   6.477  -9.514  0.00  0.00    -0.166 F 
ATOM     13  F   UNL     1      -0.797   4.892  -7.942  0.00  0.00    -0.166 F 
ATOM     14  F   UNL     1       0.919   4.524  -9.295  0.00  0.00    -0.166 F 
ENDBRANCH   6  11
BRANCH   9  15
ATOM     15  C   UNL     1      -2.143   7.612  -4.594  0.00  0.00    +0.435 C 
ATOM     16  F   UNL     1      -1.985   8.961  -4.351  0.00  0.00    -0.164 F 
ATOM     17  F   UNL     1      -2.879   7.014  -3.591  0.00  0.00    -0.164 F 
ATOM     18  F   UNL     1      -2.900   7.513  -5.758  0.00  0.00    -0.164 F 
ENDBRANCH   9  15
BRANCH   1  20
ATOM     19  O   UNL     1       1.149   4.831  -2.442  0.00  0.00    -0.217 OA
ATOM     20  C   UNL     1       2.290   5.645  -3.090  0.00  0.00    +0.190 C 
BRANCH  20  21
ATOM     21  C   UNL     1       2.183   6.876  -1.839  0.00  0.00    +0.107 C 
ATOM     22  N   UNL     1       3.548   7.526  -2.299  0.00  0.00    -0.217 NA
ATOM     23  C   UNL     1       4.022   8.128  -1.051  0.00  0.00    +0.089 C 
ATOM     24  C   UNL     1       4.928   7.062  -0.438  0.00  0.00    +0.019 C 
ATOM     25  C   UNL     1       4.306   5.753  -0.930  0.00  0.00    +0.003 C 
ATOM     26  C   UNL     1       2.862   5.867  -0.734  0.00  0.00    +0.020 C 
ENDBRANCH  20  21
ENDBRANCH   1  20
TORSDOF 4
ENDMDL
MODEL 7
REMARK VINA RESULT:      -8.2      4.200      6.455
REMARK  Name = 
REMARK  4 active torsions:
REMARK  status: ('A' for Active; 'I' for Inactive)
REMARK    1  A    between atoms: C_2  and  C_3
REMARK    2  A    between atoms: C_2  and  C_21
REMARK    3  A    between atoms: C_5  and  C_6
REMARK    4  A    between atoms: C_16  and  C_17
REMARK                            x       y       z     vdW  Elec       q    Type
REMARK                         _______ _______ _______ _____ _____    ______ ____
ROOT
ATOM      1  C   UNL     1       2.145   6.453  -6.100  0.00  0.00    +0.012 A 
ATOM      2  C   UNL     1       2.900   6.007  -5.036  0.00  0.00    +0.016 A 
ATOM      3  C   UNL     1       4.085   5.364  -5.262  0.00  0.00    +0.001 A 
ATOM      4  C   UNL     1       4.664   4.709  -4.187  0.00  0.00    +0.000 A 
ATOM      5  C   UNL     1       4.303   5.108  -2.905  0.00  0.00    +0.005 A 
ATOM      6  C   UNL     1       3.228   5.932  -2.685  0.00  0.00    +0.089 A 
ATOM      7  C   UNL     1       2.392   6.195  -3.763  0.00  0.00    +0.085 A 
ATOM      8  N   UNL     1       1.099   6.522  -3.607  0.00  0.00    -0.241 NA
ATOM      9  C   UNL     1       0.300   6.530  -4.701  0.00  0.00    +0.152 A 
ATOM     10  C   UNL     1       0.876   6.830  -5.934  0.00  0.00    +0.021 A 
ENDROOT
BRANCH   6  11
ATOM     11  C   UNL     1       2.903   6.563  -1.391  0.00  0.00    +0.420 C 
ATOM     12  F   UNL     1       1.691   6.116  -0.919  0.00  0.00    -0.166 F 
ATOM     13  F   UNL     1       2.940   7.949  -1.512  0.00  0.00    -0.166 F 
ATOM     14  F   UNL     1       3.946   6.238  -0.527  0.00  0.00    -0.166 F 
ENDBRANCH   6  11
BRANCH   9  15
ATOM     15  C   UNL     1      -1.152   6.398  -4.518  0.00  0.00    +0.435 C 
ATOM     16  F   UNL     1      -1.689   5.496  -5.415  0.00  0.00    -0.164 F 
ATOM     17  F   UNL     1      -1.813   7.608  -4.584  0.00  0.00    -0.164 F 
ATOM     18  F   UNL     1      -1.395   5.878  -3.251  0.00  0.00    -0.164 F 
ENDBRANCH   9  15
BRANCH   1  20
ATOM     19  O   UNL     1       1.966   8.189  -7.654  0.00  0.00    -0.217 OA
ATOM     20  C   UNL     1       3.042   7.147  -7.281  0.00  0.00    +0.190 C 
BRANCH  20  21
ATOM     21  C   UNL     1       2.438   6.024  -8.490  0.00  0.00    +0.107 C 
ATOM     22  N   UNL     1       3.723   5.115  -8.353  0.00  0.00    -0.217 NA
ATOM     23  C   UNL     1       3.794   4.504  -9.681  0.00  0.00    +0.089 C 
ATOM     24  C   UNL     1       4.730   5.419 -10.468  0.00  0.00    +0.019 C 
ATOM     25  C   UNL     1       4.487   6.791  -9.835  0.00  0.00    +0.003 C 
ATOM     26  C   UNL     1       3.040   6.950  -9.707  0.00  0.00    +0.020 C 
ENDBRANCH  20  21
ENDBRANCH   1  20
TORSDOF 4
ENDMDL
MODEL 8
REMARK VINA RESULT:      -8.2      2.674      4.766
REMARK  Name = 
REMARK  4 active torsions:
REMARK  status: ('A' for Active; 'I' for Inactive)
REMARK    1  A    between atoms: C_2  and  C_3
REMARK    2  A    between atoms: C_2  and  C_21
REMARK    3  A    between atoms: C_5  and  C_6
REMARK    4  A    between atoms: C_16  and  C_17
REMARK                            x       y       z     vdW  Elec       q    Type
REMARK                         _______ _______ _______ _____ _____    ______ ____
ROOT
ATOM      1  C   UNL     1       1.645   5.665  -6.456  0.00  0.00    +0.012 A 
ATOM      2  C   UNL     1       1.820   5.962  -7.791  0.00  0.00    +0.016 A 
ATOM      3  C   UNL     1       3.003   6.492  -8.223  0.00  0.00    +0.001 A 
ATOM      4  C   UNL     1       3.031   7.014  -9.506  0.00  0.00    +0.000 A 
ATOM      5  C   UNL     1       2.074   6.574 -10.413  0.00  0.00    +0.005 A 
ATOM      6  C   UNL     1       0.979   5.854 -10.009  0.00  0.00    +0.089 A 
ATOM      7  C   UNL     1       0.751   5.747  -8.642  0.00  0.00    +0.085 A 
ATOM      8  N   UNL     1      -0.474   5.547  -8.132  0.00  0.00    -0.241 NA
ATOM      9  C   UNL     1      -0.646   5.690  -6.796  0.00  0.00    +0.152 A 
ATOM     10  C   UNL     1       0.433   5.411  -5.959  0.00  0.00    +0.021 A 
ENDROOT
BRANCH   6  11
ATOM     11  C   UNL     1       0.033   5.179 -10.920  0.00  0.00    +0.420 C 
ATOM     12  F   UNL     1      -0.445   4.019 -10.357  0.00  0.00    -0.166 F 
ATOM     13  F   UNL     1       0.637   4.953 -12.154  0.00  0.00    -0.166 F 
ATOM     14  F   UNL     1      -0.988   6.093 -11.168  0.00  0.00    -0.166 F 
ENDBRANCH   6  11
BRANCH   9  15
ATOM     15  C   UNL     1      -1.996   5.960  -6.280  0.00  0.00    +0.435 C 
ATOM     16  F   UNL     1      -2.937   5.906  -7.288  0.00  0.00    -0.164 F 
ATOM     17  F   UNL     1      -2.079   7.155  -5.594  0.00  0.00    -0.164 F 
ATOM     18  F   UNL     1      -2.335   4.957  -5.377  0.00  0.00    -0.164 F 
ENDBRANCH   9  15
BRANCH   1  20
ATOM     19  O   UNL     1       2.224   3.640  -5.442  0.00  0.00    -0.217 OA
ATOM     20  C   UNL     1       2.956   4.958  -5.776  0.00  0.00    +0.190 C 
BRANCH  20  21
ATOM     21  C   UNL     1       2.576   5.622  -4.194  0.00  0.00    +0.107 C 
ATOM     22  N   UNL     1       3.143   7.039  -4.603  0.00  0.00    -0.217 NA
ATOM     23  C   UNL     1       3.560   7.575  -3.307  0.00  0.00    +0.089 C 
ATOM     24  C   UNL     1       5.037   7.200  -3.199  0.00  0.00    +0.019 C 
ATOM     25  C   UNL     1       5.122   5.896  -3.996  0.00  0.00    +0.003 C 
ATOM     26  C   UNL     1       3.994   5.067  -3.577  0.00  0.00    +0.020 C 
ENDBRANCH  20  21
ENDBRANCH   1  20
TORSDOF 4
ENDMDL
MODEL 9
REMARK VINA RESULT:      -7.9      4.950      7.713
REMARK  Name = 
REMARK  4 active torsions:
REMARK  status: ('A' for Active; 'I' for Inactive)
REMARK    1  A    between atoms: C_2  and  C_3
REMARK    2  A    between atoms: C_2  and  C_21
REMARK    3  A    between atoms: C_5  and  C_6
REMARK    4  A    between atoms: C_16  and  C_17
REMARK                            x       y       z     vdW  Elec       q    Type
REMARK                         _______ _______ _______ _____ _____    ______ ____
ROOT
ATOM      1  C   UNL     1      -0.753   6.771  -0.605  0.00  0.00    +0.012 A 
ATOM      2  C   UNL     1      -1.432   6.431  -1.756  0.00  0.00    +0.016 A 
ATOM      3  C   UNL     1      -2.798   6.383  -1.754  0.00  0.00    +0.001 A 
ATOM      4  C   UNL     1      -3.411   5.785  -2.843  0.00  0.00    +0.000 A 
ATOM      5  C   UNL     1      -2.697   5.700  -4.033  0.00  0.00    +0.005 A 
ATOM      6  C   UNL     1      -1.350   5.954  -4.081  0.00  0.00    +0.089 A 
ATOM      7  C   UNL     1      -0.682   6.103  -2.871  0.00  0.00    +0.085 A 
ATOM      8  N   UNL     1       0.628   5.842  -2.737  0.00  0.00    -0.241 NA
ATOM      9  C   UNL     1       1.148   5.784  -1.487  0.00  0.00    +0.152 A 
ATOM     10  C   UNL     1       0.560   6.563  -0.492  0.00  0.00    +0.021 A 
ENDROOT
BRANCH   6  11
ATOM     11  C   UNL     1      -0.563   6.087  -5.323  0.00  0.00    +0.420 C 
ATOM     12  F   UNL     1       0.294   5.023  -5.476  0.00  0.00    -0.166 F 
ATOM     13  F   UNL     1       0.107   7.307  -5.335  0.00  0.00    -0.166 F 
ATOM     14  F   UNL     1      -1.487   6.160  -6.362  0.00  0.00    -0.166 F 
ENDBRANCH   6  11
BRANCH   9  15
ATOM     15  C   UNL     1       2.402   5.046  -1.275  0.00  0.00    +0.435 C 
ATOM     16  F   UNL     1       3.097   4.891  -2.457  0.00  0.00    -0.164 F 
ATOM     17  F   UNL     1       2.210   3.829  -0.654  0.00  0.00    -0.164 F 
ATOM     18  F   UNL     1       3.222   5.797  -0.438  0.00  0.00    -0.164 F 
ENDBRANCH   9  15
BRANCH   1  20
ATOM     19  O   UNL     1      -0.145   8.851   0.270  0.00  0.00    -0.217 OA
ATOM     20  C   UNL     1      -1.442   8.016   0.205  0.00  0.00    +0.190 C 
BRANCH  20  21
ATOM     21  C   UNL     1      -1.098   7.279   1.763  0.00  0.00    +0.107 C 
ATOM     22  N   UNL     1      -2.390   6.374   1.671  0.00  0.00    -0.217 NA
ATOM     23  C   UNL     1      -2.704   6.165   3.085  0.00  0.00    +0.089 C 
ATOM     24  C   UNL     1      -3.704   7.271   3.418  0.00  0.00    +0.019 C 
ATOM     25  C   UNL     1      -3.292   8.406   2.478  0.00  0.00    +0.003 C 
ATOM     26  C   UNL     1      -1.836   8.514   2.555  0.00  0.00    +0.020 C 
ENDBRANCH  20  21
ENDBRANCH   1  20
TORSDOF 4
ENDMDL
