MODEL 1
REMARK VINA RESULT:      -6.1      0.000      0.000
REMARK  Name = 
REMARK  5 active torsions:
REMARK  status: ('A' for Active; 'I' for Inactive)
REMARK    1  A    between atoms: C_2  and  N_3
REMARK    2  A    between atoms: N_3  and  C_4
REMARK    3  A    between atoms: N_3  and  C_6
REMARK    4  A    between atoms: C_6  and  C_8
REMARK    5  A    between atoms: C_8  and  C_10
REMARK                            x       y       z     vdW  Elec       q    Type
REMARK                         _______ _______ _______ _____ _____    ______ ____
ROOT
ATOM      1  C   UNL     1       3.727   5.553  -9.298  0.00  0.00    +0.187 C 
ATOM      2  O   UNL     1       3.500   4.342  -9.190  0.00  0.00    -0.290 OA
ENDROOT
BRANCH   1   3
ATOM      3  C   UNL     1       4.962   6.129  -9.790  0.00  0.00    +0.036 A 
ATOM      4  C   UNL     1       4.969   7.159 -10.725  0.00  0.00    +0.003 A 
ATOM      5  C   UNL     1       6.212   7.606 -11.146  0.00  0.00    +0.000 A 
ATOM      6  C   UNL     1       7.374   6.946 -10.778  0.00  0.00    +0.000 A 
ATOM      7  C   UNL     1       7.354   6.207  -9.616  0.00  0.00    +0.000 A 
ATOM      8  C   UNL     1       6.146   5.591  -9.312  0.00  0.00    +0.003 A 
ENDBRANCH   1   3
BRANCH   1   9
ATOM      9  C   UNL     1       2.416   6.517  -9.434  0.00  0.00    +0.120 C 
ATOM     10  C   UNL     1       2.718   7.250  -7.965  0.00  0.00    +0.026 C 
BRANCH   9  11
ATOM     11  N   UNL     1       1.444   5.403  -8.834  0.00  0.00    -0.268 NA
BRANCH  11  13
ATOM     12  C   UNL     1       0.386   4.637 -10.892  0.00  0.00    +0.019 C 
ATOM     13  C   UNL     1       0.328   5.596  -9.764  0.00  0.00    +0.072 C 
ENDBRANCH  11  13
BRANCH  11  14
ATOM     14  C   UNL     1       0.983   5.836  -7.570  0.00  0.00    +0.072 C 
ATOM     15  C   UNL     1      -0.477   5.409  -7.440  0.00  0.00    +0.019 C 
ENDBRANCH  11  14
ENDBRANCH   9  11
ENDBRANCH   1   9
TORSDOF 5
ENDMDL
MODEL 2
REMARK VINA RESULT:      -6.0      1.254      2.160
REMARK  Name = 
REMARK  5 active torsions:
REMARK  status: ('A' for Active; 'I' for Inactive)
REMARK    1  A    between atoms: C_2  and  N_3
REMARK    2  A    between atoms: N_3  and  C_4
REMARK    3  A    between atoms: N_3  and  C_6
REMARK    4  A    between atoms: C_6  and  C_8
REMARK    5  A    between atoms: C_8  and  C_10
REMARK                            x       y       z     vdW  Elec       q    Type
REMARK                         _______ _______ _______ _____ _____    ______ ____
ROOT
ATOM      1  C   UNL     1       3.735   5.755  -9.770  0.00  0.00    +0.187 C 
ATOM      2  O   UNL     1       2.738   5.963 -10.472  0.00  0.00    -0.290 OA
ENDROOT
BRANCH   1   3
ATOM      3  C   UNL     1       5.067   6.257 -10.041  0.00  0.00    +0.036 A 
ATOM      4  C   UNL     1       5.284   7.338 -10.888  0.00  0.00    +0.003 A 
ATOM      5  C   UNL     1       6.605   7.707 -11.096  0.00  0.00    +0.000 A 
ATOM      6  C   UNL     1       7.650   6.932 -10.618  0.00  0.00    +0.000 A 
ATOM      7  C   UNL     1       7.407   6.127  -9.527  0.00  0.00    +0.000 A 
ATOM      8  C   UNL     1       6.126   5.595  -9.441  0.00  0.00    +0.003 A 
ENDBRANCH   1   3
BRANCH   1   9
ATOM      9  C   UNL     1       3.443   5.390  -8.205  0.00  0.00    +0.120 C 
ATOM     10  C   UNL     1       2.862   3.874  -8.596  0.00  0.00    +0.026 C 
BRANCH   9  11
ATOM     11  N   UNL     1       2.012   6.096  -8.231  0.00  0.00    -0.268 NA
BRANCH  11  13
ATOM     12  C   UNL     1       3.213   6.959  -6.294  0.00  0.00    +0.019 C 
ATOM     13  C   UNL     1       2.371   7.293  -7.467  0.00  0.00    +0.072 C 
ENDBRANCH  11  13
BRANCH  11  14
ATOM     14  C   UNL     1       1.126   5.358  -7.415  0.00  0.00    +0.072 C 
ATOM     15  C   UNL     1      -0.281   5.541  -7.976  0.00  0.00    +0.019 C 
ENDBRANCH  11  14
ENDBRANCH   9  11
ENDBRANCH   1   9
TORSDOF 5
ENDMDL
MODEL 3
REMARK VINA RESULT:      -6.0      1.366      2.010
REMARK  Name = 
REMARK  5 active torsions:
REMARK  status: ('A' for Active; 'I' for Inactive)
REMARK    1  A    between atoms: C_2  and  N_3
REMARK    2  A    between atoms: N_3  and  C_4
REMARK    3  A    between atoms: N_3  and  C_6
REMARK    4  A    between atoms: C_6  and  C_8
REMARK    5  A    between atoms: C_8  and  C_10
REMARK                            x       y       z     vdW  Elec       q    Type
REMARK                         _______ _______ _______ _____ _____    ______ ____
ROOT
ATOM      1  C   UNL     1       4.384   5.120  -8.754  0.00  0.00    +0.187 C 
ATOM      2  O   UNL     1       3.939   4.010  -9.070  0.00  0.00    -0.290 OA
ENDROOT
BRANCH   1   3
ATOM      3  C   UNL     1       5.359   5.876  -9.514  0.00  0.00    +0.036 A 
ATOM      4  C   UNL     1       6.726   5.650  -9.384  0.00  0.00    +0.003 A 
ATOM      5  C   UNL     1       7.562   6.458 -10.138  0.00  0.00    +0.000 A 
ATOM      6  C   UNL     1       7.065   7.540 -10.849  0.00  0.00    +0.000 A 
ATOM      7  C   UNL     1       5.743   7.503 -11.234  0.00  0.00    +0.000 A 
ATOM      8  C   UNL     1       4.876   6.861 -10.360  0.00  0.00    +0.003 A 
ENDBRANCH   1   3
BRANCH   1   9
ATOM      9  C   UNL     1       3.439   6.014  -7.767  0.00  0.00    +0.120 C 
ATOM     10  C   UNL     1       4.366   5.641  -6.429  0.00  0.00    +0.026 C 
BRANCH   9  11
ATOM     11  N   UNL     1       2.405   4.818  -7.553  0.00  0.00    -0.268 NA
BRANCH  11  13
ATOM     12  C   UNL     1       0.816   5.733  -9.159  0.00  0.00    +0.019 C 
ATOM     13  C   UNL     1       1.173   5.592  -7.728  0.00  0.00    +0.072 C 
ENDBRANCH  11  13
BRANCH  11  14
ATOM     14  C   UNL     1       2.436   4.427  -6.196  0.00  0.00    +0.072 C 
ATOM     15  C   UNL     1       1.010   4.509  -5.659  0.00  0.00    +0.019 C 
ENDBRANCH  11  14
ENDBRANCH   9  11
ENDBRANCH   1   9
TORSDOF 5
ENDMDL
MODEL 4
REMARK VINA RESULT:      -5.8      2.452      6.550
REMARK  Name = 
REMARK  5 active torsions:
REMARK  status: ('A' for Active; 'I' for Inactive)
REMARK    1  A    between atoms: C_2  and  N_3
REMARK    2  A    between atoms: N_3  and  C_4
REMARK    3  A    between atoms: N_3  and  C_6
REMARK    4  A    between atoms: C_6  and  C_8
REMARK    5  A    between atoms: C_8  and  C_10
REMARK                            x       y       z     vdW  Elec       q    Type
REMARK                         _______ _______ _______ _____ _____    ______ ____
ROOT
ATOM      1  C   UNL     1       1.159   5.657  -6.937  0.00  0.00    +0.187 C 
ATOM      2  O   UNL     1       1.505   4.492  -7.168  0.00  0.00    -0.290 OA
ENDROOT
BRANCH   1   3
ATOM      3  C   UNL     1      -0.090   6.049  -6.316  0.00  0.00    +0.036 A 
ATOM      4  C   UNL     1      -1.304   5.485  -6.692  0.00  0.00    +0.003 A 
ATOM      5  C   UNL     1      -2.436   5.965  -6.049  0.00  0.00    +0.000 A 
ATOM      6  C   UNL     1      -2.370   7.063  -5.205  0.00  0.00    +0.000 A 
ATOM      7  C   UNL     1      -1.164   7.337  -4.600  0.00  0.00    +0.000 A 
ATOM      8  C   UNL     1      -0.031   7.037  -5.346  0.00  0.00    +0.003 A 
ENDBRANCH   1   3
BRANCH   1   9
ATOM      9  C   UNL     1       2.367   6.747  -6.800  0.00  0.00    +0.120 C 
ATOM     10  C   UNL     1       2.192   7.243  -8.384  0.00  0.00    +0.026 C 
BRANCH   9  11
ATOM     11  N   UNL     1       3.487   5.656  -7.121  0.00  0.00    -0.268 NA
BRANCH  11  13
ATOM     12  C   UNL     1       3.903   7.119  -5.216  0.00  0.00    +0.019 C 
ATOM     13  C   UNL     1       4.367   5.940  -5.985  0.00  0.00    +0.072 C 
ENDBRANCH  11  13
BRANCH  11  14
ATOM     14  C   UNL     1       4.193   6.057  -8.277  0.00  0.00    +0.072 C 
ATOM     15  C   UNL     1       5.437   5.180  -8.386  0.00  0.00    +0.019 C 
ENDBRANCH  11  14
ENDBRANCH   9  11
ENDBRANCH   1   9
TORSDOF 5
ENDMDL
MODEL 5
REMARK VINA RESULT:      -5.8      1.587      2.607
REMARK  Name = 
REMARK  5 active torsions:
REMARK  status: ('A' for Active; 'I' for Inactive)
REMARK    1  A    between atoms: C_2  and  N_3
REMARK    2  A    between atoms: N_3  and  C_4
REMARK    3  A    between atoms: N_3  and  C_6
REMARK    4  A    between atoms: C_6  and  C_8
REMARK    5  A    between atoms: C_8  and  C_10
REMARK                            x       y       z     vdW  Elec       q    Type
REMARK                         _______ _______ _______ _____ _____    ______ ____
ROOT
ATOM      1  C   UNL     1       3.520   6.751  -9.810  0.00  0.00    +0.187 C 
ATOM      2  O   UNL     1       2.987   7.417  -8.914  0.00  0.00    -0.290 OA
ENDROOT
BRANCH   1   3
ATOM      3  C   UNL     1       4.946   6.670 -10.054  0.00  0.00    +0.036 A 
ATOM      4  C   UNL     1       5.735   5.686  -9.467  0.00  0.00    +0.003 A 
ATOM      5  C   UNL     1       7.092   5.730  -9.749  0.00  0.00    +0.000 A 
ATOM      6  C   UNL     1       7.647   6.796 -10.440  0.00  0.00    +0.000 A 
ATOM      7  C   UNL     1       6.826   7.515 -11.281  0.00  0.00    +0.000 A 
ATOM      8  C   UNL     1       5.503   7.636 -10.877  0.00  0.00    +0.003 A 
ENDBRANCH   1   3
BRANCH   1   9
ATOM      9  C   UNL     1       2.653   5.486 -10.372  0.00  0.00    +0.120 C 
ATOM     10  C   UNL     1       2.965   5.892 -11.962  0.00  0.00    +0.026 C 
BRANCH   9  11
ATOM     11  N   UNL     1       1.281   6.297 -10.291  0.00  0.00    -0.268 NA
BRANCH  11  13
ATOM     12  C   UNL     1       0.008   5.483  -8.378  0.00  0.00    +0.019 C 
ATOM     13  C   UNL     1       0.445   5.213  -9.768  0.00  0.00    +0.072 C 
ENDBRANCH  11  13
BRANCH  11  14
ATOM     14  C   UNL     1       0.824   6.548 -11.604  0.00  0.00    +0.072 C 
ATOM     15  C   UNL     1      -0.433   7.408 -11.500  0.00  0.00    +0.019 C 
ENDBRANCH  11  14
ENDBRANCH   9  11
ENDBRANCH   1   9
TORSDOF 5
ENDMDL
MODEL 6
REMARK VINA RESULT:      -5.8      1.197      1.679
REMARK  Name = 
REMARK  5 active torsions:
REMARK  status: ('A' for Active; 'I' for Inactive)
REMARK    1  A    between atoms: C_2  and  N_3
REMARK    2  A    between atoms: N_3  and  C_4
REMARK    3  A    between atoms: N_3  and  C_6
REMARK    4  A    between atoms: C_6  and  C_8
REMARK    5  A    between atoms: C_8  and  C_10
REMARK                            x       y       z     vdW  Elec       q    Type
REMARK                         _______ _______ _______ _____ _____    ______ ____
ROOT
ATOM      1  C   UNL     1       3.965   5.610  -9.454  0.00  0.00    +0.187 C 
ATOM      2  O   UNL     1       3.727   4.399  -9.373  0.00  0.00    -0.290 OA
ENDROOT
BRANCH   1   3
ATOM      3  C   UNL     1       5.221   6.186  -9.891  0.00  0.00    +0.036 A 
ATOM      4  C   UNL     1       5.266   7.255 -10.780  0.00  0.00    +0.003 A 
ATOM      5  C   UNL     1       6.527   7.699 -11.151  0.00  0.00    +0.000 A 
ATOM      6  C   UNL     1       7.669   7.003 -10.786  0.00  0.00    +0.000 A 
ATOM      7  C   UNL     1       7.609   6.215  -9.659  0.00  0.00    +0.000 A 
ATOM      8  C   UNL     1       6.384   5.607  -9.410  0.00  0.00    +0.003 A 
ENDBRANCH   1   3
BRANCH   1   9
ATOM      9  C   UNL     1       2.666   6.585  -9.623  0.00  0.00    +0.120 C 
ATOM     10  C   UNL     1       2.000   6.061  -8.184  0.00  0.00    +0.026 C 
BRANCH   9  11
ATOM     11  N   UNL     1       1.893   5.520 -10.526  0.00  0.00    -0.268 NA
BRANCH  11  13
ATOM     12  C   UNL     1       2.625   5.720 -12.842  0.00  0.00    +0.019 C 
ATOM     13  C   UNL     1       1.821   6.319 -11.751  0.00  0.00    +0.072 C 
ENDBRANCH  11  13
BRANCH  11  14
ATOM     14  C   UNL     1       0.567   5.401 -10.054  0.00  0.00    +0.072 C 
ATOM     15  C   UNL     1      -0.129   4.335 -10.895  0.00  0.00    +0.019 C 
ENDBRANCH  11  14
ENDBRANCH   9  11
ENDBRANCH   1   9
TORSDOF 5
ENDMDL
MODEL 7
REMARK VINA RESULT:      -5.8      2.000      6.068
REMARK  Name = 
REMARK  5 active torsions:
REMARK  status: ('A' for Active; 'I' for Inactive)
REMARK    1  A    between atoms: C_2  and  N_3
REMARK    2  A    between atoms: N_3  and  C_4
REMARK    3  A    between atoms: N_3  and  C_6
REMARK    4  A    between atoms: C_6  and  C_8
REMARK    5  A    between atoms: C_8  and  C_10
REMARK                            x       y       z     vdW  Elec       q    Type
REMARK                         _______ _______ _______ _____ _____    ______ ____
ROOT
ATOM      1  C   UNL     1       1.267   5.689  -7.086  0.00  0.00    +0.187 C 
ATOM      2  O   UNL     1       2.309   6.294  -6.808  0.00  0.00    -0.290 OA
ENDROOT
BRANCH   1   3
ATOM      3  C   UNL     1      -0.031   5.948  -6.495  0.00  0.00    +0.036 A 
ATOM      4  C   UNL     1      -1.184   5.320  -6.954  0.00  0.00    +0.003 A 
ATOM      5  C   UNL     1      -2.371   5.673  -6.332  0.00  0.00    +0.000 A 
ATOM      6  C   UNL     1      -2.422   6.718  -5.422  0.00  0.00    +0.000 A 
ATOM      7  C   UNL     1      -1.263   7.043  -4.752  0.00  0.00    +0.000 A 
ATOM      8  C   UNL     1      -0.083   6.876  -5.467  0.00  0.00    +0.003 A 
ENDBRANCH   1   3
BRANCH   1   9
ATOM      9  C   UNL     1       1.224   4.977  -8.555  0.00  0.00    +0.120 C 
ATOM     10  C   UNL     1       2.577   4.057  -8.225  0.00  0.00    +0.026 C 
BRANCH   9  11
ATOM     11  N   UNL     1       2.033   6.171  -9.238  0.00  0.00    -0.268 NA
BRANCH  11  13
ATOM     12  C   UNL     1       0.100   5.612 -10.615  0.00  0.00    +0.019 C 
ATOM     13  C   UNL     1       0.943   6.699 -10.062  0.00  0.00    +0.072 C 
ENDBRANCH  11  13
BRANCH  11  14
ATOM     14  C   UNL     1       2.976   5.624 -10.137  0.00  0.00    +0.072 C 
ATOM     15  C   UNL     1       4.110   6.635 -10.289  0.00  0.00    +0.019 C 
ENDBRANCH  11  14
ENDBRANCH   9  11
ENDBRANCH   1   9
TORSDOF 5
ENDMDL
MODEL 8
REMARK VINA RESULT:      -5.6      2.592      5.703
REMARK  Name = 
REMARK  5 active torsions:
REMARK  status: ('A' for Active; 'I' for Inactive)
REMARK    1  A    between atoms: C_2  and  N_3
REMARK    2  A    between atoms: N_3  and  C_4
REMARK    3  A    between atoms: N_3  and  C_6
REMARK    4  A    between atoms: C_6  and  C_8
REMARK    5  A    between atoms: C_8  and  C_10
REMARK                            x       y       z     vdW  Elec       q    Type
REMARK                         _______ _______ _______ _____ _____    ______ ____
ROOT
ATOM      1  C   UNL     1       4.890   5.961 -10.553  0.00  0.00    +0.187 C 
ATOM      2  O   UNL     1       4.388   5.244 -11.426  0.00  0.00    -0.290 OA
ENDROOT
BRANCH   1   3
ATOM      3  C   UNL     1       4.406   6.083  -9.193  0.00  0.00    +0.036 A 
ATOM      4  C   UNL     1       5.033   5.440  -8.131  0.00  0.00    +0.003 A 
ATOM      5  C   UNL     1       4.459   5.605  -6.880  0.00  0.00    +0.000 A 
ATOM      6  C   UNL     1       3.233   6.236  -6.730  0.00  0.00    +0.000 A 
ATOM      7  C   UNL     1       2.853   7.138  -7.699  0.00  0.00    +0.000 A 
ATOM      8  C   UNL     1       3.267   6.848  -8.993  0.00  0.00    +0.003 A 
ENDBRANCH   1   3
BRANCH   1   9
ATOM      9  C   UNL     1       6.465   6.342 -10.759  0.00  0.00    +0.120 C 
ATOM     10  C   UNL     1       6.098   7.904 -11.221  0.00  0.00    +0.026 C 
BRANCH   9  11
ATOM     11  N   UNL     1       6.487   5.761 -12.245  0.00  0.00    -0.268 NA
BRANCH  11  13
ATOM     12  C   UNL     1       8.921   5.890 -12.215  0.00  0.00    +0.019 C 
ATOM     13  C   UNL     1       7.736   5.003 -12.139  0.00  0.00    +0.072 C 
ENDBRANCH  11  13
BRANCH  11  14
ATOM     14  C   UNL     1       6.744   6.821 -13.143  0.00  0.00    +0.072 C 
ATOM     15  C   UNL     1       6.085   6.469 -14.474  0.00  0.00    +0.019 C 
ENDBRANCH  11  14
ENDBRANCH   9  11
ENDBRANCH   1   9
TORSDOF 5
ENDMDL
MODEL 9
REMARK VINA RESULT:      -5.4      2.846      6.724
REMARK  Name = 
REMARK  5 active torsions:
REMARK  status: ('A' for Active; 'I' for Inactive)
REMARK    1  A    between atoms: C_2  and  N_3
REMARK    2  A    between atoms: N_3  and  C_4
REMARK    3  A    between atoms: N_3  and  C_6
REMARK    4  A    between atoms: C_6  and  C_8
REMARK    5  A    between atoms: C_8  and  C_10
REMARK                            x       y       z     vdW  Elec       q    Type
REMARK                         _______ _______ _______ _____ _____    ______ ____
ROOT
ATOM      1  C   UNL     1       0.354   6.082  -7.194  0.00  0.00    +0.187 C 
ATOM      2  O   UNL     1       0.291   5.750  -8.383  0.00  0.00    -0.290 OA
ENDROOT
BRANCH   1   3
ATOM      3  C   UNL     1      -0.683   5.854  -6.207  0.00  0.00    +0.036 A 
ATOM      4  C   UNL     1      -1.978   5.503  -6.573  0.00  0.00    +0.003 A 
ATOM      5  C   UNL     1      -2.892   5.343  -5.542  0.00  0.00    +0.000 A 
ATOM      6  C   UNL     1      -2.568   5.683  -4.237  0.00  0.00    +0.000 A 
ATOM      7  C   UNL     1      -1.237   5.667  -3.880  0.00  0.00    +0.000 A 
ATOM      8  C   UNL     1      -0.339   6.030  -4.876  0.00  0.00    +0.003 A 
ENDBRANCH   1   3
BRANCH   1   9
ATOM      9  C   UNL     1       1.856   6.265  -6.581  0.00  0.00    +0.120 C 
ATOM     10  C   UNL     1       2.268   7.388  -7.746  0.00  0.00    +0.026 C 
BRANCH   9  11
ATOM     11  N   UNL     1       2.419   5.013  -7.394  0.00  0.00    -0.268 NA
BRANCH  11  13
ATOM     12  C   UNL     1       3.197   4.698  -5.106  0.00  0.00    +0.019 C 
ATOM     13  C   UNL     1       2.519   4.079  -6.270  0.00  0.00    +0.072 C 
ENDBRANCH  11  13
BRANCH  11  14
ATOM     14  C   UNL     1       3.745   5.290  -7.796  0.00  0.00    +0.072 C 
ATOM     15  C   UNL     1       4.048   4.427  -9.018  0.00  0.00    +0.019 C 
ENDBRANCH  11  14
ENDBRANCH   9  11
ENDBRANCH   1   9
TORSDOF 5
ENDMDL
