MODEL 1
REMARK VINA RESULT:      -8.6      0.000      0.000
REMARK  Name = 
REMARK  6 active torsions:
REMARK  status: ('A' for Active; 'I' for Inactive)
REMARK    1  A    between atoms: C_2  and  C_4
REMARK    2  A    between atoms: C_6  and  N_7
REMARK    3  A    between atoms: N_8  and  C_9
REMARK    4  A    between atoms: C_12  and  S_13
REMARK    5  A    between atoms: S_13  and  N_16
REMARK    6  A    between atoms: N_16  and  C_17
REMARK                            x       y       z     vdW  Elec       q    Type
REMARK                         _______ _______ _______ _____ _____    ______ ____
ROOT
ATOM      1  C   UNL     1       2.824   4.872  -7.943  0.00  0.00    +0.103 A 
ATOM      2  C   UNL     1       2.410   3.879  -7.063  0.00  0.00    +0.022 A 
ATOM      3  C   UNL     1       1.340   4.141  -6.214  0.00  0.00    +0.022 A 
ATOM      4  C   UNL     1       0.645   5.343  -6.262  0.00  0.00    +0.127 A 
ATOM      5  C   UNL     1       0.852   6.158  -7.367  0.00  0.00    +0.022 A 
ATOM      6  C   UNL     1       1.856   5.812  -8.265  0.00  0.00    +0.022 A 
ENDROOT
BRANCH   4   7
ATOM      7  S   UNL     1      -0.015   6.059  -4.797  0.00  0.00    +0.094 S 
ATOM      8  O   UNL     1      -1.251   6.816  -5.177  0.00  0.00    -0.148 OA
ATOM      9  O   UNL     1      -0.284   4.976  -3.799  0.00  0.00    -0.148 OA
BRANCH   7  10
ATOM     10  N   UNL     1       1.204   7.135  -4.188  0.00  0.00    -0.077 NA
BRANCH  10  11
ATOM     11  C   UNL     1       2.536   6.665  -4.019  0.00  0.00    +0.172 A 
ATOM     12  N   UNL     1       2.835   5.602  -3.250  0.00  0.00    -0.226 NA
ATOM     13  C   UNL     1       4.005   4.937  -3.374  0.00  0.00    +0.100 A 
ATOM     14  C   UNL     1       4.806   5.144  -4.488  0.00  0.00    +0.021 A 
ATOM     15  C   UNL     1       4.621   6.306  -5.211  0.00  0.00    +0.005 A 
ATOM     16  C   UNL     1       3.552   7.110  -4.853  0.00  0.00    +0.038 A 
ENDBRANCH  10  11
ENDBRANCH   7  10
ENDBRANCH   4   7
BRANCH   1  18
ATOM     17  N   UNL     1       5.114   5.014  -8.566  0.00  0.00    -0.148 NA
ATOM     18  N   UNL     1       3.947   4.584  -8.738  0.00  0.00    -0.148 NA
BRANCH  17  24
ATOM     19  C   UNL     1       6.137   5.336 -12.004  0.00  0.00    +0.120 A 
ATOM     20  C   UNL     1       7.513   5.473 -11.874  0.00  0.00    +0.202 A 
ATOM     21  O   UNL     1       8.291   5.772 -12.997  0.00  0.00    -0.286 OA
ATOM     22  C   UNL     1       8.062   5.735 -10.624  0.00  0.00    +0.044 A 
ATOM     23  C   UNL     1       7.262   5.802  -9.492  0.00  0.00    +0.024 A 
ATOM     24  C   UNL     1       5.895   5.601  -9.614  0.00  0.00    +0.103 A 
ATOM     25  C   UNL     1       5.381   5.716 -10.901  0.00  0.00    +0.031 A 
BRANCH  19  27
ATOM     26  O   UNL     1       4.607   4.451 -13.539  0.00  0.00    -0.240 OA
ATOM     27  C   UNL     1       5.529   5.297 -13.337  0.00  0.00    +0.391 C 
ATOM     28  O   UNL     1       5.392   6.515 -14.003  0.00  0.00    -0.240 OA
ENDBRANCH  19  27
ENDBRANCH  17  24
ENDBRANCH   1  18
TORSDOF 6
ENDMDL
MODEL 2
REMARK VINA RESULT:      -8.3      1.874      3.243
REMARK  Name = 
REMARK  6 active torsions:
REMARK  status: ('A' for Active; 'I' for Inactive)
REMARK    1  A    between atoms: C_2  and  C_4
REMARK    2  A    between atoms: C_6  and  N_7
REMARK    3  A    between atoms: N_8  and  C_9
REMARK    4  A    between atoms: C_12  and  S_13
REMARK    5  A    between atoms: S_13  and  N_16
REMARK    6  A    between atoms: N_16  and  C_17
REMARK                            x       y       z     vdW  Elec       q    Type
REMARK                         _______ _______ _______ _____ _____    ______ ____
ROOT
ATOM      1  C   UNL     1       3.968   5.962  -6.391  0.00  0.00    +0.103 A 
ATOM      2  C   UNL     1       3.670   7.156  -5.746  0.00  0.00    +0.022 A 
ATOM      3  C   UNL     1       3.462   7.141  -4.372  0.00  0.00    +0.022 A 
ATOM      4  C   UNL     1       3.595   5.978  -3.624  0.00  0.00    +0.127 A 
ATOM      5  C   UNL     1       4.225   4.897  -4.229  0.00  0.00    +0.022 A 
ATOM      6  C   UNL     1       4.527   4.982  -5.583  0.00  0.00    +0.022 A 
ENDROOT
BRANCH   4   7
ATOM      7  S   UNL     1       2.565   5.680  -2.229  0.00  0.00    +0.094 S 
ATOM      8  O   UNL     1       3.239   4.649  -1.376  0.00  0.00    -0.148 OA
ATOM      9  O   UNL     1       2.337   6.970  -1.505  0.00  0.00    -0.148 OA
BRANCH   7  10
ATOM     10  N   UNL     1       1.061   5.078  -2.854  0.00  0.00    -0.077 NA
BRANCH  10  11
ATOM     11  C   UNL     1       0.618   5.491  -4.140  0.00  0.00    +0.172 A 
ATOM     12  N   UNL     1       0.753   4.719  -5.234  0.00  0.00    -0.226 NA
ATOM     13  C   UNL     1       0.025   4.930  -6.352  0.00  0.00    +0.100 A 
ATOM     14  C   UNL     1      -1.087   5.758  -6.310  0.00  0.00    +0.021 A 
ATOM     15  C   UNL     1      -1.176   6.669  -5.276  0.00  0.00    +0.005 A 
ATOM     16  C   UNL     1      -0.220   6.589  -4.278  0.00  0.00    +0.038 A 
ENDBRANCH  10  11
ENDBRANCH   7  10
ENDBRANCH   4   7
BRANCH   1  18
ATOM     17  N   UNL     1       4.770   5.221  -8.503  0.00  0.00    -0.148 NA
ATOM     18  N   UNL     1       4.110   6.016  -7.788  0.00  0.00    -0.148 NA
BRANCH  17  24
ATOM     19  C   UNL     1       6.094   5.289 -11.852  0.00  0.00    +0.120 A 
ATOM     20  C   UNL     1       7.461   5.224 -11.612  0.00  0.00    +0.202 A 
ATOM     21  O   UNL     1       8.361   5.371 -12.673  0.00  0.00    -0.286 OA
ATOM     22  C   UNL     1       7.944   5.437 -10.327  0.00  0.00    +0.044 A 
ATOM     23  C   UNL     1       7.077   5.654  -9.265  0.00  0.00    +0.024 A 
ATOM     24  C   UNL     1       5.710   5.655  -9.495  0.00  0.00    +0.103 A 
ATOM     25  C   UNL     1       5.321   5.808 -10.820  0.00  0.00    +0.031 A 
BRANCH  19  27
ATOM     26  O   UNL     1       4.720   4.440 -13.547  0.00  0.00    -0.240 OA
ATOM     27  C   UNL     1       5.593   5.302 -13.229  0.00  0.00    +0.391 C 
ATOM     28  O   UNL     1       5.466   6.550 -13.841  0.00  0.00    -0.240 OA
ENDBRANCH  19  27
ENDBRANCH  17  24
ENDBRANCH   1  18
TORSDOF 6
ENDMDL
MODEL 3
REMARK VINA RESULT:      -8.1      3.421      8.919
REMARK  Name = 
REMARK  6 active torsions:
REMARK  status: ('A' for Active; 'I' for Inactive)
REMARK    1  A    between atoms: C_2  and  C_4
REMARK    2  A    between atoms: C_6  and  N_7
REMARK    3  A    between atoms: N_8  and  C_9
REMARK    4  A    between atoms: C_12  and  S_13
REMARK    5  A    between atoms: S_13  and  N_16
REMARK    6  A    between atoms: N_16  and  C_17
REMARK                            x       y       z     vdW  Elec       q    Type
REMARK                         _______ _______ _______ _____ _____    ______ ____
ROOT
ATOM      1  C   UNL     1       1.694   5.097  -7.564  0.00  0.00    +0.103 A 
ATOM      2  C   UNL     1       2.371   4.038  -8.158  0.00  0.00    +0.022 A 
ATOM      3  C   UNL     1       3.441   4.316  -9.000  0.00  0.00    +0.022 A 
ATOM      4  C   UNL     1       3.881   5.615  -9.220  0.00  0.00    +0.127 A 
ATOM      5  C   UNL     1       3.420   6.601  -8.358  0.00  0.00    +0.022 A 
ATOM      6  C   UNL     1       2.427   6.269  -7.444  0.00  0.00    +0.022 A 
ENDROOT
BRANCH   4   7
ATOM      7  S   UNL     1       4.519   6.096 -10.788  0.00  0.00    +0.094 S 
ATOM      8  O   UNL     1       5.717   6.962 -10.546  0.00  0.00    -0.148 OA
ATOM      9  O   UNL     1       4.843   4.870 -11.583  0.00  0.00    -0.148 OA
BRANCH   7  10
ATOM     10  N   UNL     1       3.256   6.993 -11.572  0.00  0.00    -0.077 NA
BRANCH  10  11
ATOM     11  C   UNL     1       1.974   6.402 -11.743  0.00  0.00    +0.172 A 
ATOM     12  N   UNL     1       1.778   5.311 -12.508  0.00  0.00    -0.226 NA
ATOM     13  C   UNL     1       0.674   4.542 -12.383  0.00  0.00    +0.100 A 
ATOM     14  C   UNL     1      -0.148   4.680 -11.274  0.00  0.00    +0.021 A 
ATOM     15  C   UNL     1      -0.074   5.859 -10.557  0.00  0.00    +0.005 A 
ATOM     16  C   UNL     1       0.919   6.755 -10.915  0.00  0.00    +0.038 A 
ENDBRANCH  10  11
ENDBRANCH   7  10
ENDBRANCH   4   7
BRANCH   1  18
ATOM     17  N   UNL     1      -0.488   5.424  -6.677  0.00  0.00    -0.148 NA
ATOM     18  N   UNL     1       0.581   4.771  -6.770  0.00  0.00    -0.148 NA
BRANCH  17  24
ATOM     19  C   UNL     1      -0.660   5.359  -3.080  0.00  0.00    +0.120 A 
ATOM     20  C   UNL     1      -2.023   5.202  -2.869  0.00  0.00    +0.202 A 
ATOM     21  O   UNL     1      -2.539   5.274  -1.570  0.00  0.00    -0.286 OA
ATOM     22  C   UNL     1      -2.909   5.397  -3.923  0.00  0.00    +0.044 A 
ATOM     23  C   UNL     1      -2.447   5.687  -5.199  0.00  0.00    +0.024 A 
ATOM     24  C   UNL     1      -1.082   5.780  -5.421  0.00  0.00    +0.103 A 
ATOM     25  C   UNL     1      -0.295   5.943  -4.287  0.00  0.00    +0.031 A 
BRANCH  19  27
ATOM     26  O   UNL     1       0.602   4.281  -1.428  0.00  0.00    -0.240 OA
ATOM     27  C   UNL     1       0.258   5.390  -1.938  0.00  0.00    +0.391 C 
ATOM     28  O   UNL     1       1.235   6.386  -1.942  0.00  0.00    -0.240 OA
ENDBRANCH  19  27
ENDBRANCH  17  24
ENDBRANCH   1  18
TORSDOF 6
ENDMDL
MODEL 4
REMARK VINA RESULT:      -8.1      3.318      8.830
REMARK  Name = 
REMARK  6 active torsions:
REMARK  status: ('A' for Active; 'I' for Inactive)
REMARK    1  A    between atoms: C_2  and  C_4
REMARK    2  A    between atoms: C_6  and  N_7
REMARK    3  A    between atoms: N_8  and  C_9
REMARK    4  A    between atoms: C_12  and  S_13
REMARK    5  A    between atoms: S_13  and  N_16
REMARK    6  A    between atoms: N_16  and  C_17
REMARK                            x       y       z     vdW  Elec       q    Type
REMARK                         _______ _______ _______ _____ _____    ______ ____
ROOT
ATOM      1  C   UNL     1       1.186   5.487 -10.542  0.00  0.00    +0.103 A 
ATOM      2  C   UNL     1       2.525   5.477 -10.167  0.00  0.00    +0.022 A 
ATOM      3  C   UNL     1       3.489   5.787 -11.120  0.00  0.00    +0.022 A 
ATOM      4  C   UNL     1       3.146   6.157 -12.414  0.00  0.00    +0.127 A 
ATOM      5  C   UNL     1       1.820   6.493 -12.654  0.00  0.00    +0.022 A 
ATOM      6  C   UNL     1       0.890   6.279 -11.642  0.00  0.00    +0.022 A 
ENDROOT
BRANCH   4   7
ATOM      7  S   UNL     1       4.160   5.704 -13.779  0.00  0.00    +0.094 S 
ATOM      8  O   UNL     1       4.767   4.369 -13.474  0.00  0.00    -0.148 OA
ATOM      9  O   UNL     1       3.330   5.692 -15.024  0.00  0.00    -0.148 OA
BRANCH   7  10
ATOM     10  N   UNL     1       5.388   6.926 -13.899  0.00  0.00    -0.077 NA
BRANCH  10  11
ATOM     11  C   UNL     1       6.503   6.893 -13.017  0.00  0.00    +0.172 A 
ATOM     12  N   UNL     1       6.451   7.389 -11.766  0.00  0.00    -0.226 NA
ATOM     13  C   UNL     1       7.352   7.039 -10.822  0.00  0.00    +0.100 A 
ATOM     14  C   UNL     1       8.178   5.942 -11.022  0.00  0.00    +0.021 A 
ATOM     15  C   UNL     1       8.370   5.506 -12.319  0.00  0.00    +0.005 A 
ATOM     16  C   UNL     1       7.608   6.105 -13.307  0.00  0.00    +0.038 A 
ENDBRANCH  10  11
ENDBRANCH   7  10
ENDBRANCH   4   7
BRANCH   1  18
ATOM     17  N   UNL     1      -0.089   5.778  -8.556  0.00  0.00    -0.148 NA
ATOM     18  N   UNL     1       0.252   5.108  -9.562  0.00  0.00    -0.148 NA
BRANCH  17  24
ATOM     19  C   UNL     1      -1.119   5.820  -5.106  0.00  0.00    +0.120 A 
ATOM     20  C   UNL     1       0.048   5.430  -4.461  0.00  0.00    +0.202 A 
ATOM     21  O   UNL     1       0.032   5.180  -3.085  0.00  0.00    -0.286 OA
ATOM     22  C   UNL     1       1.092   4.888  -5.201  0.00  0.00    +0.044 A 
ATOM     23  C   UNL     1       1.012   4.786  -6.582  0.00  0.00    +0.024 A 
ATOM     24  C   UNL     1      -0.129   5.235  -7.230  0.00  0.00    +0.103 A 
ATOM     25  C   UNL     1      -1.250   5.410  -6.427  0.00  0.00    +0.031 A 
BRANCH  19  27
ATOM     26  O   UNL     1      -2.857   7.287  -4.550  0.00  0.00    -0.240 OA
ATOM     27  C   UNL     1      -2.306   6.169  -4.320  0.00  0.00    +0.391 C 
ATOM     28  O   UNL     1      -3.168   5.124  -3.984  0.00  0.00    -0.240 OA
ENDBRANCH  19  27
ENDBRANCH  17  24
ENDBRANCH   1  18
TORSDOF 6
ENDMDL
MODEL 5
REMARK VINA RESULT:      -7.9      3.125      9.174
REMARK  Name = 
REMARK  6 active torsions:
REMARK  status: ('A' for Active; 'I' for Inactive)
REMARK    1  A    between atoms: C_2  and  C_4
REMARK    2  A    between atoms: C_6  and  N_7
REMARK    3  A    between atoms: N_8  and  C_9
REMARK    4  A    between atoms: C_12  and  S_13
REMARK    5  A    between atoms: S_13  and  N_16
REMARK    6  A    between atoms: N_16  and  C_17
REMARK                            x       y       z     vdW  Elec       q    Type
REMARK                         _______ _______ _______ _____ _____    ______ ____
ROOT
ATOM      1  C   UNL     1       0.650   5.762  -7.471  0.00  0.00    +0.103 A 
ATOM      2  C   UNL     1       1.731   6.616  -7.283  0.00  0.00    +0.022 A 
ATOM      3  C   UNL     1       2.522   6.944  -8.377  0.00  0.00    +0.022 A 
ATOM      4  C   UNL     1       2.231   6.484  -9.655  0.00  0.00    +0.127 A 
ATOM      5  C   UNL     1       0.973   5.935  -9.866  0.00  0.00    +0.022 A 
ATOM      6  C   UNL     1       0.152   5.721  -8.765  0.00  0.00    +0.022 A 
ENDROOT
BRANCH   4   7
ATOM      7  S   UNL     1       3.520   6.101 -10.790  0.00  0.00    +0.094 S 
ATOM      8  O   UNL     1       4.049   4.745 -10.438  0.00  0.00    -0.148 OA
ATOM      9  O   UNL     1       2.980   6.167 -12.185  0.00  0.00    -0.148 OA
BRANCH   7  10
ATOM     10  N   UNL     1       4.740   7.316 -10.570  0.00  0.00    -0.077 NA
BRANCH  10  11
ATOM     11  C   UNL     1       6.079   7.050 -10.969  0.00  0.00    +0.172 A 
ATOM     12  N   UNL     1       6.936   6.351 -10.201  0.00  0.00    -0.226 NA
ATOM     13  C   UNL     1       8.053   5.787 -10.711  0.00  0.00    +0.100 A 
ATOM     14  C   UNL     1       8.202   5.660 -12.084  0.00  0.00    +0.021 A 
ATOM     15  C   UNL     1       7.440   6.477 -12.896  0.00  0.00    +0.005 A 
ATOM     16  C   UNL     1       6.479   7.261 -12.280  0.00  0.00    +0.038 A 
ENDBRANCH  10  11
ENDBRANCH   7  10
ENDBRANCH   4   7
BRANCH   1  18
ATOM     17  N   UNL     1      -1.173   5.915  -5.952  0.00  0.00    -0.148 NA
ATOM     18  N   UNL     1      -0.085   5.411  -6.325  0.00  0.00    -0.148 NA
BRANCH  17  24
ATOM     19  C   UNL     1      -0.777   5.707  -2.379  0.00  0.00    +0.120 A 
ATOM     20  C   UNL     1      -2.062   5.992  -1.938  0.00  0.00    +0.202 A 
ATOM     21  O   UNL     1      -2.310   6.154  -0.571  0.00  0.00    -0.286 OA
ATOM     22  C   UNL     1      -2.991   6.523  -2.826  0.00  0.00    +0.044 A 
ATOM     23  C   UNL     1      -2.671   6.718  -4.162  0.00  0.00    +0.024 A 
ATOM     24  C   UNL     1      -1.406   6.374  -4.614  0.00  0.00    +0.103 A 
ATOM     25  C   UNL     1      -0.438   6.207  -3.631  0.00  0.00    +0.031 A 
BRANCH  19  27
ATOM     26  O   UNL     1       0.797   4.222  -1.484  0.00  0.00    -0.240 OA
ATOM     27  C   UNL     1       0.271   5.373  -1.410  0.00  0.00    +0.391 C 
ATOM     28  O   UNL     1       1.123   6.407  -1.021  0.00  0.00    -0.240 OA
ENDBRANCH  19  27
ENDBRANCH  17  24
ENDBRANCH   1  18
TORSDOF 6
ENDMDL
MODEL 6
REMARK VINA RESULT:      -7.8      2.853      3.954
REMARK  Name = 
REMARK  6 active torsions:
REMARK  status: ('A' for Active; 'I' for Inactive)
REMARK    1  A    between atoms: C_2  and  C_4
REMARK    2  A    between atoms: C_6  and  N_7
REMARK    3  A    between atoms: N_8  and  C_9
REMARK    4  A    between atoms: C_12  and  S_13
REMARK    5  A    between atoms: S_13  and  N_16
REMARK    6  A    between atoms: N_16  and  C_17
REMARK                            x       y       z     vdW  Elec       q    Type
REMARK                         _______ _______ _______ _____ _____    ______ ____
ROOT
ATOM      1  C   UNL     1       1.494   6.421  -7.798  0.00  0.00    +0.103 A 
ATOM      2  C   UNL     1       1.661   6.861  -6.490  0.00  0.00    +0.022 A 
ATOM      3  C   UNL     1       0.610   6.705  -5.593  0.00  0.00    +0.022 A 
ATOM      4  C   UNL     1      -0.575   6.078  -5.955  0.00  0.00    +0.127 A 
ATOM      5  C   UNL     1      -0.578   5.352  -7.139  0.00  0.00    +0.022 A 
ATOM      6  C   UNL     1       0.535   5.433  -7.968  0.00  0.00    +0.022 A 
ENDROOT
BRANCH   4   7
ATOM      7  S   UNL     1      -2.114   6.604  -5.285  0.00  0.00    +0.094 S 
ATOM      8  O   UNL     1      -1.899   7.939  -4.641  0.00  0.00    -0.148 OA
ATOM      9  O   UNL     1      -3.136   6.647  -6.378  0.00  0.00    -0.148 OA
BRANCH   7  10
ATOM     10  N   UNL     1      -2.562   5.413  -4.103  0.00  0.00    -0.077 NA
BRANCH  10  11
ATOM     11  C   UNL     1      -2.114   5.551  -2.760  0.00  0.00    +0.172 A 
ATOM     12  N   UNL     1      -0.897   5.140  -2.358  0.00  0.00    -0.226 NA
ATOM     13  C   UNL     1      -0.333   5.589  -1.215  0.00  0.00    +0.100 A 
ATOM     14  C   UNL     1      -0.857   6.702  -0.573  0.00  0.00    +0.021 A 
ATOM     15  C   UNL     1      -2.162   7.056  -0.855  0.00  0.00    +0.005 A 
ATOM     16  C   UNL     1      -2.802   6.361  -1.867  0.00  0.00    +0.038 A 
ENDBRANCH  10  11
ENDBRANCH   7  10
ENDBRANCH   4   7
BRANCH   1  18
ATOM     17  N   UNL     1       2.555   6.463  -9.925  0.00  0.00    -0.148 NA
ATOM     18  N   UNL     1       2.560   6.654  -8.684  0.00  0.00    -0.148 NA
BRANCH  17  24
ATOM     19  C   UNL     1       5.982   5.922 -10.891  0.00  0.00    +0.120 A 
ATOM     20  C   UNL     1       5.844   5.584 -12.231  0.00  0.00    +0.202 A 
ATOM     21  O   UNL     1       6.958   5.150 -12.958  0.00  0.00    -0.286 OA
ATOM     22  C   UNL     1       4.587   5.269 -12.734  0.00  0.00    +0.044 A 
ATOM     23  C   UNL     1       3.457   5.345 -11.932  0.00  0.00    +0.024 A 
ATOM     24  C   UNL     1       3.589   5.745 -10.611  0.00  0.00    +0.103 A 
ATOM     25  C   UNL     1       4.874   5.682 -10.087  0.00  0.00    +0.031 A 
BRANCH  19  27
ATOM     26  O   UNL     1       7.843   7.176 -10.223  0.00  0.00    -0.240 OA
ATOM     27  C   UNL     1       7.318   6.025 -10.297  0.00  0.00    +0.391 C 
ATOM     28  O   UNL     1       7.607   5.156  -9.244  0.00  0.00    -0.240 OA
ENDBRANCH  19  27
ENDBRANCH  17  24
ENDBRANCH   1  18
TORSDOF 6
ENDMDL
MODEL 7
REMARK VINA RESULT:      -7.8      4.274      9.406
REMARK  Name = 
REMARK  6 active torsions:
REMARK  status: ('A' for Active; 'I' for Inactive)
REMARK    1  A    between atoms: C_2  and  C_4
REMARK    2  A    between atoms: C_6  and  N_7
REMARK    3  A    between atoms: N_8  and  C_9
REMARK    4  A    between atoms: C_12  and  S_13
REMARK    5  A    between atoms: S_13  and  N_16
REMARK    6  A    between atoms: N_16  and  C_17
REMARK                            x       y       z     vdW  Elec       q    Type
REMARK                         _______ _______ _______ _____ _____    ______ ____
ROOT
ATOM      1  C   UNL     1       3.923   7.190  -3.634  0.00  0.00    +0.103 A 
ATOM      2  C   UNL     1       3.712   5.854  -3.314  0.00  0.00    +0.022 A 
ATOM      3  C   UNL     1       3.423   4.958  -4.337  0.00  0.00    +0.022 A 
ATOM      4  C   UNL     1       3.391   5.353  -5.669  0.00  0.00    +0.127 A 
ATOM      5  C   UNL     1       3.941   6.590  -5.982  0.00  0.00    +0.022 A 
ATOM      6  C   UNL     1       4.329   7.424  -4.940  0.00  0.00    +0.022 A 
ENDROOT
BRANCH   4   7
ATOM      7  S   UNL     1       2.256   4.624  -6.798  0.00  0.00    +0.094 S 
ATOM      8  O   UNL     1       3.014   4.264  -8.038  0.00  0.00    -0.148 OA
ATOM      9  O   UNL     1       1.612   3.439  -6.148  0.00  0.00    -0.148 OA
BRANCH   7  10
ATOM     10  N   UNL     1       1.060   5.836  -7.136  0.00  0.00    -0.077 NA
BRANCH  10  11
ATOM     11  C   UNL     1      -0.031   6.017  -6.241  0.00  0.00    +0.172 A 
ATOM     12  N   UNL     1      -0.012   6.933  -5.254  0.00  0.00    -0.226 NA
ATOM     13  C   UNL     1      -1.145   7.360  -4.656  0.00  0.00    +0.100 A 
ATOM     14  C   UNL     1      -2.379   7.093  -5.232  0.00  0.00    +0.021 A 
ATOM     15  C   UNL     1      -2.457   6.054  -6.139  0.00  0.00    +0.005 A 
ATOM     16  C   UNL     1      -1.268   5.451  -6.514  0.00  0.00    +0.038 A 
ENDBRANCH  10  11
ENDBRANCH   7  10
ENDBRANCH   4   7
BRANCH   1  18
ATOM     17  N   UNL     1       4.294   7.754  -1.355  0.00  0.00    -0.148 NA
ATOM     18  N   UNL     1       4.152   8.069  -2.562  0.00  0.00    -0.148 NA
BRANCH  17  24
ATOM     19  C   UNL     1       1.383   8.256   0.705  0.00  0.00    +0.120 A 
ATOM     20  C   UNL     1       1.348   9.640   0.806  0.00  0.00    +0.202 A 
ATOM     21  O   UNL     1       0.426  10.253   1.662  0.00  0.00    -0.286 OA
ATOM     22  C   UNL     1       2.455  10.386   0.417  0.00  0.00    +0.044 A 
ATOM     23  C   UNL     1       3.574   9.771  -0.129  0.00  0.00    +0.024 A 
ATOM     24  C   UNL     1       3.581   8.394  -0.289  0.00  0.00    +0.103 A 
ATOM     25  C   UNL     1       2.628   7.696   0.444  0.00  0.00    +0.031 A 
BRANCH  19  27
ATOM     26  O   UNL     1      -0.372   6.712   0.570  0.00  0.00    -0.240 OA
ATOM     27  C   UNL     1       0.327   7.451   1.325  0.00  0.00    +0.391 C 
ATOM     28  O   UNL     1       0.588   6.943   2.599  0.00  0.00    -0.240 OA
ENDBRANCH  19  27
ENDBRANCH  17  24
ENDBRANCH   1  18
TORSDOF 6
ENDMDL
MODEL 8
REMARK VINA RESULT:      -7.8      2.371      3.519
REMARK  Name = 
REMARK  6 active torsions:
REMARK  status: ('A' for Active; 'I' for Inactive)
REMARK    1  A    between atoms: C_2  and  C_4
REMARK    2  A    between atoms: C_6  and  N_7
REMARK    3  A    between atoms: N_8  and  C_9
REMARK    4  A    between atoms: C_12  and  S_13
REMARK    5  A    between atoms: S_13  and  N_16
REMARK    6  A    between atoms: N_16  and  C_17
REMARK                            x       y       z     vdW  Elec       q    Type
REMARK                         _______ _______ _______ _____ _____    ______ ____
ROOT
ATOM      1  C   UNL     1       4.283   5.626  -7.980  0.00  0.00    +0.103 A 
ATOM      2  C   UNL     1       3.181   6.424  -8.263  0.00  0.00    +0.022 A 
ATOM      3  C   UNL     1       2.350   6.812  -7.218  0.00  0.00    +0.022 A 
ATOM      4  C   UNL     1       2.622   6.468  -5.900  0.00  0.00    +0.127 A 
ATOM      5  C   UNL     1       3.892   5.982  -5.615  0.00  0.00    +0.022 A 
ATOM      6  C   UNL     1       4.748   5.708  -6.675  0.00  0.00    +0.022 A 
ENDROOT
BRANCH   4   7
ATOM      7  S   UNL     1       1.317   6.134  -4.768  0.00  0.00    +0.094 S 
ATOM      8  O   UNL     1       1.099   4.653  -4.748  0.00  0.00    -0.148 OA
ATOM      9  O   UNL     1       1.681   6.684  -3.424  0.00  0.00    -0.148 OA
BRANCH   7  10
ATOM     10  N   UNL     1      -0.083   6.956  -5.384  0.00  0.00    -0.077 NA
BRANCH  10  11
ATOM     11  C   UNL     1      -1.340   6.784  -4.741  0.00  0.00    +0.172 A 
ATOM     12  N   UNL     1      -2.042   5.637  -4.821  0.00  0.00    -0.226 NA
ATOM     13  C   UNL     1      -3.021   5.337  -3.940  0.00  0.00    +0.100 A 
ATOM     14  C   UNL     1      -3.137   6.056  -2.759  0.00  0.00    +0.021 A 
ATOM     15  C   UNL     1      -2.552   7.306  -2.702  0.00  0.00    +0.005 A 
ATOM     16  C   UNL     1      -1.770   7.687  -3.780  0.00  0.00    +0.038 A 
ENDBRANCH  10  11
ENDBRANCH   7  10
ENDBRANCH   4   7
BRANCH   1  18
ATOM     17  N   UNL     1       6.166   5.684  -9.431  0.00  0.00    -0.148 NA
ATOM     18  N   UNL     1       5.059   5.209  -9.075  0.00  0.00    -0.148 NA
BRANCH  17  24
ATOM     19  C   UNL     1       5.609   5.563 -12.987  0.00  0.00    +0.120 A 
ATOM     20  C   UNL     1       6.910   5.530 -13.472  0.00  0.00    +0.202 A 
ATOM     21  O   UNL     1       7.141   5.624 -14.848  0.00  0.00    -0.286 OA
ATOM     22  C   UNL     1       7.968   5.828 -12.621  0.00  0.00    +0.044 A 
ATOM     23  C   UNL     1       7.750   6.099 -11.278  0.00  0.00    +0.024 A 
ATOM     24  C   UNL     1       6.456   6.068 -10.781  0.00  0.00    +0.103 A 
ATOM     25  C   UNL     1       5.443   6.134 -11.730  0.00  0.00    +0.031 A 
BRANCH  19  27
ATOM     26  O   UNL     1       3.375   5.053 -13.469  0.00  0.00    -0.240 OA
ATOM     27  C   UNL     1       4.480   5.484 -13.917  0.00  0.00    +0.391 C 
ATOM     28  O   UNL     1       4.393   6.484 -14.888  0.00  0.00    -0.240 OA
ENDBRANCH  19  27
ENDBRANCH  17  24
ENDBRANCH   1  18
TORSDOF 6
ENDMDL
MODEL 9
REMARK VINA RESULT:      -7.7      3.162      9.134
REMARK  Name = 
REMARK  6 active torsions:
REMARK  status: ('A' for Active; 'I' for Inactive)
REMARK    1  A    between atoms: C_2  and  C_4
REMARK    2  A    between atoms: C_6  and  N_7
REMARK    3  A    between atoms: N_8  and  C_9
REMARK    4  A    between atoms: C_12  and  S_13
REMARK    5  A    between atoms: S_13  and  N_16
REMARK    6  A    between atoms: N_16  and  C_17
REMARK                            x       y       z     vdW  Elec       q    Type
REMARK                         _______ _______ _______ _____ _____    ______ ____
ROOT
ATOM      1  C   UNL     1       1.944   6.591  -5.469  0.00  0.00    +0.103 A 
ATOM      2  C   UNL     1       3.104   7.001  -6.117  0.00  0.00    +0.022 A 
ATOM      3  C   UNL     1       3.217   6.787  -7.486  0.00  0.00    +0.022 A 
ATOM      4  C   UNL     1       2.185   6.224  -8.226  0.00  0.00    +0.127 A 
ATOM      5  C   UNL     1       0.934   6.151  -7.628  0.00  0.00    +0.022 A 
ATOM      6  C   UNL     1       0.825   6.482  -6.282  0.00  0.00    +0.022 A 
ENDROOT
BRANCH   4   7
ATOM      7  S   UNL     1       2.528   5.171  -9.594  0.00  0.00    +0.094 S 
ATOM      8  O   UNL     1       3.740   4.360  -9.253  0.00  0.00    -0.148 OA
ATOM      9  O   UNL     1       1.326   4.325  -9.875  0.00  0.00    -0.148 OA
BRANCH   7  10
ATOM     10  N   UNL     1       2.845   6.216 -10.944  0.00  0.00    -0.077 NA
BRANCH  10  11
ATOM     11  C   UNL     1       4.187   6.467 -11.341  0.00  0.00    +0.172 A 
ATOM     12  N   UNL     1       4.998   7.301 -10.662  0.00  0.00    -0.226 NA
ATOM     13  C   UNL     1       6.341   7.261 -10.802  0.00  0.00    +0.100 A 
ATOM     14  C   UNL     1       6.943   6.175 -11.420  0.00  0.00    +0.021 A 
ATOM     15  C   UNL     1       6.165   5.388 -12.247  0.00  0.00    +0.005 A 
ATOM     16  C   UNL     1       4.807   5.657 -12.282  0.00  0.00    +0.038 A 
ENDBRANCH  10  11
ENDBRANCH   7  10
ENDBRANCH   4   7
BRANCH   1  18
ATOM     17  N   UNL     1       2.061   5.888  -3.201  0.00  0.00    -0.148 NA
ATOM     18  N   UNL     1       1.899   6.774  -4.076  0.00  0.00    -0.148 NA
BRANCH  17  24
ATOM     19  C   UNL     1      -1.192   6.012  -1.661  0.00  0.00    +0.120 A 
ATOM     20  C   UNL     1      -0.887   6.516  -0.404  0.00  0.00    +0.202 A 
ATOM     21  O   UNL     1      -1.881   6.586   0.578  0.00  0.00    -0.286 OA
ATOM     22  C   UNL     1       0.437   6.551   0.019  0.00  0.00    +0.044 A 
ATOM     23  C   UNL     1       1.466   6.146  -0.820  0.00  0.00    +0.024 A 
ATOM     24  C   UNL     1       1.164   5.703  -2.098  0.00  0.00    +0.103 A 
ATOM     25  C   UNL     1      -0.162   5.348  -2.317  0.00  0.00    +0.031 A 
BRANCH  19  27
ATOM     26  O   UNL     1      -3.337   6.749  -2.243  0.00  0.00    -0.240 OA
ATOM     27  C   UNL     1      -2.587   5.750  -2.025  0.00  0.00    +0.391 C 
ATOM     28  O   UNL     1      -2.834   4.623  -2.810  0.00  0.00    -0.240 OA
ENDBRANCH  19  27
ENDBRANCH  17  24
ENDBRANCH   1  18
TORSDOF 6
ENDMDL
