MODEL 1
REMARK VINA RESULT:      -8.3      0.000      0.000
REMARK  Name = 
REMARK  5 active torsions:
REMARK  status: ('A' for Active; 'I' for Inactive)
REMARK    1  A    between atoms: C_2  and  C_4
REMARK    2  A    between atoms: C_8  and  C_9
REMARK    3  A    between atoms: C_12  and  S_13
REMARK    4  A    between atoms: S_13  and  C_14
REMARK    5  A    between atoms: C_17  and  C_18
REMARK                            x       y       z     vdW  Elec       q    Type
REMARK                         _______ _______ _______ _____ _____    ______ ____
ROOT
ATOM      1  C   UNL     1       3.477   6.291  -2.956  0.00  0.00    +0.126 C 
ATOM      2  C   UNL     1       3.963   7.190  -4.314  0.00  0.00    +0.096 C 
ATOM      3  N   UNL     1       2.545   6.825  -4.846  0.00  0.00    -0.254 N 
ATOM      4  C   UNL     1       2.874   6.886  -6.237  0.00  0.00    +0.136 C 
ATOM      5  C   UNL     1       3.974   6.297  -6.553  0.00  0.00    +0.024 C 
ATOM      6  C   UNL     1       4.693   5.876  -5.173  0.00  0.00    +0.049 C 
ATOM      7  C   UNL     1       3.532   4.757  -4.855  0.00  0.00    +0.007 C 
ATOM      8  C   UNL     1       2.026   6.530  -3.552  0.00  0.00    +0.233 C 
ATOM      9  O   UNL     1       1.031   5.814  -3.274  0.00  0.00    -0.274 OA
ENDROOT
BRANCH   1  11
ATOM     10  C   UNL     1       3.006   6.885  -0.564  0.00  0.00    +0.036 C 
ATOM     11  C   UNL     1       3.445   7.702  -1.953  0.00  0.00    +0.162 C 
ATOM     12  O   UNL     1       4.930   7.561  -1.582  0.00  0.00    -0.223 OA
ENDBRANCH   1  11
BRANCH   4  13
ATOM     13  C   UNL     1       1.906   7.349  -7.233  0.00  0.00    +0.401 C 
ATOM     14  O   UNL     1       0.930   6.461  -7.691  0.00  0.00    -0.239 OA
ATOM     15  O   UNL     1       2.073   8.402  -7.862  0.00  0.00    -0.239 OA
ENDBRANCH   4  13
BRANCH   5  16
ATOM     16  S   UNL     1       4.143   5.257  -8.017  0.00  0.00    -0.116 S 
BRANCH  16  17
ATOM     17  C   UNL     1       4.360   6.412  -9.529  0.00  0.00    +0.071 C 
ATOM     18  C   UNL     1       5.624   5.687 -10.171  0.00  0.00    +0.039 C 
ATOM     19  C   UNL     1       5.338   6.577 -11.564  0.00  0.00    +0.150 C 
ATOM     20  N   UNL     1       3.858   6.007 -11.747  0.00  0.00    -0.209 NA
ATOM     21  C   UNL     1       3.468   5.540 -10.514  0.00  0.00    +0.100 C 
BRANCH  19  22
ATOM     22  C   UNL     1       5.957   5.396 -12.524  0.00  0.00    +0.242 C 
ATOM     23  N   UNL     1       7.107   5.859 -13.170  0.00  0.00    -0.275 N 
ATOM     24  C   UNL     1       8.386   5.695 -12.581  0.00  0.00    +0.115 C 
ATOM     25  C   UNL     1       7.054   6.147 -14.594  0.00  0.00    +0.115 C 
ATOM     26  O   UNL     1       5.064   4.774 -13.134  0.00  0.00    -0.273 OA
ENDBRANCH  19  22
ENDBRANCH  16  17
ENDBRANCH   5  16
TORSDOF 5
ENDMDL
MODEL 2
REMARK VINA RESULT:      -8.2      3.205      4.167
REMARK  Name = 
REMARK  5 active torsions:
REMARK  status: ('A' for Active; 'I' for Inactive)
REMARK    1  A    between atoms: C_2  and  C_4
REMARK    2  A    between atoms: C_8  and  C_9
REMARK    3  A    between atoms: C_12  and  S_13
REMARK    4  A    between atoms: S_13  and  C_14
REMARK    5  A    between atoms: C_17  and  C_18
REMARK                            x       y       z     vdW  Elec       q    Type
REMARK                         _______ _______ _______ _____ _____    ______ ____
ROOT
ATOM      1  C   UNL     1      -1.854   6.113  -4.313  0.00  0.00    +0.126 C 
ATOM      2  C   UNL     1      -0.411   5.447  -4.914  0.00  0.00    +0.096 C 
ATOM      3  N   UNL     1      -0.147   6.902  -5.405  0.00  0.00    -0.254 N 
ATOM      4  C   UNL     1       0.686   6.551  -6.513  0.00  0.00    +0.136 C 
ATOM      5  C   UNL     1       0.240   5.580  -7.232  0.00  0.00    +0.024 C 
ATOM      6  C   UNL     1      -1.036   4.973  -6.457  0.00  0.00    +0.049 C 
ATOM      7  C   UNL     1      -1.916   6.331  -6.745  0.00  0.00    +0.007 C 
ATOM      8  C   UNL     1      -1.074   7.484  -4.492  0.00  0.00    +0.233 C 
ATOM      9  O   UNL     1      -1.642   8.601  -4.590  0.00  0.00    -0.274 OA
ENDROOT
BRANCH   1  11
ATOM     10  C   UNL     1      -2.537   6.863  -2.019  0.00  0.00    +0.036 C 
ATOM     11  C   UNL     1      -1.351   5.885  -2.672  0.00  0.00    +0.162 C 
ATOM     12  O   UNL     1      -2.249   4.652  -2.491  0.00  0.00    -0.223 OA
ENDBRANCH   1  11
BRANCH   4  13
ATOM     13  C   UNL     1       1.804   7.399  -6.929  0.00  0.00    +0.401 C 
ATOM     14  O   UNL     1       2.998   7.349  -6.205  0.00  0.00    -0.239 OA
ATOM     15  O   UNL     1       1.652   8.329  -7.731  0.00  0.00    -0.239 OA
ENDBRANCH   4  13
BRANCH   5  16
ATOM     16  S   UNL     1       0.284   5.597  -9.035  0.00  0.00    -0.116 S 
BRANCH  16  17
ATOM     17  C   UNL     1       1.815   4.590  -9.589  0.00  0.00    +0.071 C 
ATOM     18  C   UNL     1       2.811   5.814  -9.798  0.00  0.00    +0.039 C 
ATOM     19  C   UNL     1       4.061   4.696  -9.855  0.00  0.00    +0.150 C 
ATOM     20  N   UNL     1       3.740   4.110  -8.405  0.00  0.00    -0.209 NA
ATOM     21  C   UNL     1       2.435   4.446  -8.132  0.00  0.00    +0.100 C 
BRANCH  19  22
ATOM     22  C   UNL     1       5.137   5.769  -9.230  0.00  0.00    +0.242 C 
ATOM     23  N   UNL     1       6.011   6.205 -10.229  0.00  0.00    -0.275 N 
ATOM     24  C   UNL     1       5.711   7.352 -11.007  0.00  0.00    +0.115 C 
ATOM     25  C   UNL     1       7.390   5.743 -10.218  0.00  0.00    +0.115 C 
ATOM     26  O   UNL     1       5.545   5.418  -8.104  0.00  0.00    -0.273 OA
ENDBRANCH  19  22
ENDBRANCH  16  17
ENDBRANCH   5  16
TORSDOF 5
ENDMDL
MODEL 3
REMARK VINA RESULT:      -7.8      3.628      4.440
REMARK  Name = 
REMARK  5 active torsions:
REMARK  status: ('A' for Active; 'I' for Inactive)
REMARK    1  A    between atoms: C_2  and  C_4
REMARK    2  A    between atoms: C_8  and  C_9
REMARK    3  A    between atoms: C_12  and  S_13
REMARK    4  A    between atoms: S_13  and  C_14
REMARK    5  A    between atoms: C_17  and  C_18
REMARK                            x       y       z     vdW  Elec       q    Type
REMARK                         _______ _______ _______ _____ _____    ______ ____
ROOT
ATOM      1  C   UNL     1      -1.297   5.906  -4.155  0.00  0.00    +0.126 C 
ATOM      2  C   UNL     1       0.348   5.530  -4.366  0.00  0.00    +0.096 C 
ATOM      3  N   UNL     1       0.342   6.798  -5.272  0.00  0.00    -0.254 N 
ATOM      4  C   UNL     1       1.421   6.394  -6.120  0.00  0.00    +0.136 C 
ATOM      5  C   UNL     1       1.355   5.175  -6.527  0.00  0.00    +0.024 C 
ATOM      6  C   UNL     1       0.140   4.480  -5.726  0.00  0.00    +0.049 C 
ATOM      7  C   UNL     1      -0.969   5.394  -6.521  0.00  0.00    +0.007 C 
ATOM      8  C   UNL     1      -0.845   7.330  -4.691  0.00  0.00    +0.233 C 
ATOM      9  O   UNL     1      -1.634   8.167  -5.199  0.00  0.00    -0.274 OA
ENDROOT
BRANCH   1  11
ATOM     10  C   UNL     1      -2.658   6.688  -2.199  0.00  0.00    +0.036 C 
ATOM     11  C   UNL     1      -1.057   6.308  -2.488  0.00  0.00    +0.162 C 
ATOM     12  O   UNL     1      -1.304   4.862  -2.030  0.00  0.00    -0.223 OA
ENDBRANCH   1  11
BRANCH   4  13
ATOM     13  C   UNL     1       2.362   7.367  -6.678  0.00  0.00    +0.401 C 
ATOM     14  O   UNL     1       3.619   7.509  -6.083  0.00  0.00    -0.239 OA
ATOM     15  O   UNL     1       2.002   8.233  -7.485  0.00  0.00    -0.239 OA
ENDBRANCH   4  13
BRANCH   5  16
ATOM     16  S   UNL     1       1.717   4.688  -8.226  0.00  0.00    -0.116 S 
BRANCH  16  17
ATOM     17  C   UNL     1       0.589   5.720  -9.379  0.00  0.00    +0.071 C 
ATOM     18  C   UNL     1       1.732   6.328 -10.306  0.00  0.00    +0.039 C 
ATOM     19  C   UNL     1       0.523   6.791 -11.372  0.00  0.00    +0.150 C 
ATOM     20  N   UNL     1      -0.016   5.301 -11.568  0.00  0.00    -0.209 NA
ATOM     21  C   UNL     1       0.421   4.585 -10.479  0.00  0.00    +0.100 C 
BRANCH  19  22
ATOM     22  C   UNL     1       1.521   6.646 -12.669  0.00  0.00    +0.242 C 
ATOM     23  N   UNL     1       0.779   6.321 -13.808  0.00  0.00    -0.275 N 
ATOM     24  C   UNL     1       0.257   7.337 -14.648  0.00  0.00    +0.115 C 
ATOM     25  C   UNL     1       0.869   4.977 -14.356  0.00  0.00    +0.115 C 
ATOM     26  O   UNL     1       2.579   6.050 -12.380  0.00  0.00    -0.273 OA
ENDBRANCH  19  22
ENDBRANCH  16  17
ENDBRANCH   5  16
TORSDOF 5
ENDMDL
MODEL 4
REMARK VINA RESULT:      -7.6      3.230      8.878
REMARK  Name = 
REMARK  5 active torsions:
REMARK  status: ('A' for Active; 'I' for Inactive)
REMARK    1  A    between atoms: C_2  and  C_4
REMARK    2  A    between atoms: C_8  and  C_9
REMARK    3  A    between atoms: C_12  and  S_13
REMARK    4  A    between atoms: S_13  and  C_14
REMARK    5  A    between atoms: C_17  and  C_18
REMARK                            x       y       z     vdW  Elec       q    Type
REMARK                         _______ _______ _______ _____ _____    ______ ____
ROOT
ATOM      1  C   UNL     1       3.411   6.229  -7.702  0.00  0.00    +0.126 C 
ATOM      2  C   UNL     1       2.356   5.167  -6.898  0.00  0.00    +0.096 C 
ATOM      3  N   UNL     1       1.508   6.455  -6.674  0.00  0.00    -0.254 N 
ATOM      4  C   UNL     1       0.869   6.021  -5.471  0.00  0.00    +0.136 C 
ATOM      5  C   UNL     1       1.658   5.478  -4.611  0.00  0.00    +0.024 C 
ATOM      6  C   UNL     1       3.088   5.302  -5.335  0.00  0.00    +0.049 C 
ATOM      7  C   UNL     1       3.327   6.928  -5.363  0.00  0.00    +0.007 C 
ATOM      8  C   UNL     1       2.134   7.170  -7.736  0.00  0.00    +0.233 C 
ATOM      9  O   UNL     1       2.190   8.417  -7.885  0.00  0.00    -0.274 OA
ENDROOT
BRANCH   1  11
ATOM     10  C   UNL     1       4.191   6.418 -10.078  0.00  0.00    +0.036 C 
ATOM     11  C   UNL     1       3.081   5.498  -9.236  0.00  0.00    +0.162 C 
ATOM     12  O   UNL     1       4.134   4.400  -9.021  0.00  0.00    -0.223 OA
ENDBRANCH   1  11
BRANCH   4  13
ATOM     13  C   UNL     1      -0.507   6.405  -5.153  0.00  0.00    +0.401 C 
ATOM     14  O   UNL     1      -0.788   7.746  -4.876  0.00  0.00    -0.239 OA
ATOM     15  O   UNL     1      -1.371   5.563  -4.876  0.00  0.00    -0.239 OA
ENDBRANCH   4  13
BRANCH   5  16
ATOM     16  S   UNL     1       1.574   5.831  -2.844  0.00  0.00    -0.116 S 
BRANCH  16  17
ATOM     17  C   UNL     1       3.351   6.212  -2.242  0.00  0.00    +0.071 C 
ATOM     18  C   UNL     1       2.985   7.377  -1.221  0.00  0.00    +0.039 C 
ATOM     19  C   UNL     1       4.535   7.223  -0.599  0.00  0.00    +0.150 C 
ATOM     20  N   UNL     1       4.342   5.683  -0.223  0.00  0.00    -0.209 NA
ATOM     21  C   UNL     1       3.303   5.223  -0.997  0.00  0.00    +0.100 C 
BRANCH  19  22
ATOM     22  C   UNL     1       4.051   7.693   0.900  0.00  0.00    +0.242 C 
ATOM     23  N   UNL     1       4.305   9.056   1.078  0.00  0.00    -0.275 N 
ATOM     24  C   UNL     1       3.329  10.026   0.739  0.00  0.00    +0.115 C 
ATOM     25  C   UNL     1       5.384   9.467   1.962  0.00  0.00    +0.115 C 
ATOM     26  O   UNL     1       4.343   6.848   1.771  0.00  0.00    -0.273 OA
ENDBRANCH  19  22
ENDBRANCH  16  17
ENDBRANCH   5  16
TORSDOF 5
ENDMDL
MODEL 5
REMARK VINA RESULT:      -7.6      2.718      3.286
REMARK  Name = 
REMARK  5 active torsions:
REMARK  status: ('A' for Active; 'I' for Inactive)
REMARK    1  A    between atoms: C_2  and  C_4
REMARK    2  A    between atoms: C_8  and  C_9
REMARK    3  A    between atoms: C_12  and  S_13
REMARK    4  A    between atoms: S_13  and  C_14
REMARK    5  A    between atoms: C_17  and  C_18
REMARK                            x       y       z     vdW  Elec       q    Type
REMARK                         _______ _______ _______ _____ _____    ______ ____
ROOT
ATOM      1  C   UNL     1       4.150   6.875  -2.638  0.00  0.00    +0.126 C 
ATOM      2  C   UNL     1       2.918   7.256  -3.745  0.00  0.00    +0.096 C 
ATOM      3  N   UNL     1       2.720   5.712  -3.790  0.00  0.00    -0.254 N 
ATOM      4  C   UNL     1       2.187   5.655  -5.116  0.00  0.00    +0.136 C 
ATOM      5  C   UNL     1       2.830   6.360  -5.982  0.00  0.00    +0.024 C 
ATOM      6  C   UNL     1       3.911   7.233  -5.164  0.00  0.00    +0.049 C 
ATOM      7  C   UNL     1       4.777   5.890  -4.783  0.00  0.00    +0.007 C 
ATOM      8  C   UNL     1       3.380   5.491  -2.547  0.00  0.00    +0.233 C 
ATOM      9  O   UNL     1       3.908   4.424  -2.143  0.00  0.00    -0.274 OA
ENDROOT
BRANCH   1  11
ATOM     10  C   UNL     1       4.505   7.387  -0.208  0.00  0.00    +0.036 C 
ATOM     11  C   UNL     1       3.282   7.599  -1.326  0.00  0.00    +0.162 C 
ATOM     12  O   UNL     1       3.809   9.004  -1.656  0.00  0.00    -0.223 OA
ENDBRANCH   1  11
BRANCH   4  13
ATOM     13  C   UNL     1       1.166   4.676  -5.491  0.00  0.00    +0.401 C 
ATOM     14  O   UNL     1       1.567   3.467  -6.067  0.00  0.00    -0.239 OA
ATOM     15  O   UNL     1      -0.033   4.976  -5.551  0.00  0.00    -0.239 OA
ENDBRANCH   4  13
BRANCH   5  16
ATOM     16  S   UNL     1       3.214   5.763  -7.640  0.00  0.00    -0.116 S 
BRANCH  16  17
ATOM     17  C   UNL     1       2.039   6.650  -8.864  0.00  0.00    +0.071 C 
ATOM     18  C   UNL     1       2.613   6.017 -10.207  0.00  0.00    +0.039 C 
ATOM     19  C   UNL     1       1.242   6.593 -10.982  0.00  0.00    +0.150 C 
ATOM     20  N   UNL     1       0.243   5.788 -10.031  0.00  0.00    -0.209 NA
ATOM     21  C   UNL     1       0.947   5.495  -8.888  0.00  0.00    +0.100 C 
BRANCH  19  22
ATOM     22  C   UNL     1       1.262   5.364 -12.072  0.00  0.00    +0.242 C 
ATOM     23  N   UNL     1       1.785   5.814 -13.288  0.00  0.00    -0.275 N 
ATOM     24  C   UNL     1       3.175   5.731 -13.554  0.00  0.00    +0.115 C 
ATOM     25  C   UNL     1       0.893   5.996 -14.422  0.00  0.00    +0.115 C 
ATOM     26  O   UNL     1       0.224   4.674 -12.017  0.00  0.00    -0.273 OA
ENDBRANCH  19  22
ENDBRANCH  16  17
ENDBRANCH   5  16
TORSDOF 5
ENDMDL
MODEL 6
REMARK VINA RESULT:      -7.4      2.557      3.536
REMARK  Name = 
REMARK  5 active torsions:
REMARK  status: ('A' for Active; 'I' for Inactive)
REMARK    1  A    between atoms: C_2  and  C_4
REMARK    2  A    between atoms: C_8  and  C_9
REMARK    3  A    between atoms: C_12  and  S_13
REMARK    4  A    between atoms: S_13  and  C_14
REMARK    5  A    between atoms: C_17  and  C_18
REMARK                            x       y       z     vdW  Elec       q    Type
REMARK                         _______ _______ _______ _____ _____    ______ ____
ROOT
ATOM      1  C   UNL     1      -1.251   5.941  -4.464  0.00  0.00    +0.126 C 
ATOM      2  C   UNL     1       0.185   5.057  -4.248  0.00  0.00    +0.096 C 
ATOM      3  N   UNL     1       0.854   6.333  -4.841  0.00  0.00    -0.254 N 
ATOM      4  C   UNL     1       1.997   5.674  -5.394  0.00  0.00    +0.136 C 
ATOM      5  C   UNL     1       1.730   4.591  -6.038  0.00  0.00    +0.024 C 
ATOM      6  C   UNL     1       0.170   4.271  -5.790  0.00  0.00    +0.049 C 
ATOM      7  C   UNL     1      -0.287   5.576  -6.678  0.00  0.00    +0.007 C 
ATOM      8  C   UNL     1      -0.256   7.175  -4.544  0.00  0.00    +0.233 C 
ATOM      9  O   UNL     1      -0.547   8.272  -5.085  0.00  0.00    -0.274 OA
ENDROOT
BRANCH   1  11
ATOM     10  C   UNL     1      -2.923   6.942  -2.884  0.00  0.00    +0.036 C 
ATOM     11  C   UNL     1      -1.498   6.079  -2.756  0.00  0.00    +0.162 C 
ATOM     12  O   UNL     1      -2.287   4.762  -2.690  0.00  0.00    -0.223 OA
ENDBRANCH   1  11
BRANCH   4  13
ATOM     13  C   UNL     1       3.308   6.322  -5.441  0.00  0.00    +0.401 C 
ATOM     14  O   UNL     1       4.415   5.648  -4.919  0.00  0.00    -0.239 OA
ATOM     15  O   UNL     1       3.430   7.529  -5.690  0.00  0.00    -0.239 OA
ENDBRANCH   4  13
BRANCH   5  16
ATOM     16  S   UNL     1       2.502   4.174  -7.615  0.00  0.00    -0.116 S 
BRANCH  16  17
ATOM     17  C   UNL     1       2.798   5.809  -8.568  0.00  0.00    +0.071 C 
ATOM     18  C   UNL     1       4.305   5.535  -8.998  0.00  0.00    +0.039 C 
ATOM     19  C   UNL     1       4.157   6.815 -10.072  0.00  0.00    +0.150 C 
ATOM     20  N   UNL     1       2.927   6.154 -10.847  0.00  0.00    -0.209 NA
ATOM     21  C   UNL     1       2.378   5.233  -9.988  0.00  0.00    +0.100 C 
BRANCH  19  22
ATOM     22  C   UNL     1       5.231   6.145 -11.120  0.00  0.00    +0.242 C 
ATOM     23  N   UNL     1       6.403   6.906 -11.153  0.00  0.00    -0.275 N 
ATOM     24  C   UNL     1       7.477   6.624 -10.272  0.00  0.00    +0.115 C 
ATOM     25  C   UNL     1       6.691   7.717 -12.326  0.00  0.00    +0.115 C 
ATOM     26  O   UNL     1       4.677   5.742 -12.163  0.00  0.00    -0.273 OA
ENDBRANCH  19  22
ENDBRANCH  16  17
ENDBRANCH   5  16
TORSDOF 5
ENDMDL
MODEL 7
REMARK VINA RESULT:      -7.3      3.556      9.508
REMARK  Name = 
REMARK  5 active torsions:
REMARK  status: ('A' for Active; 'I' for Inactive)
REMARK    1  A    between atoms: C_2  and  C_4
REMARK    2  A    between atoms: C_8  and  C_9
REMARK    3  A    between atoms: C_12  and  S_13
REMARK    4  A    between atoms: S_13  and  C_14
REMARK    5  A    between atoms: C_17  and  C_18
REMARK                            x       y       z     vdW  Elec       q    Type
REMARK                         _______ _______ _______ _____ _____    ______ ____
ROOT
ATOM      1  C   UNL     1       0.982   6.013 -12.545  0.00  0.00    +0.126 C 
ATOM      2  C   UNL     1       0.449   6.960 -11.237  0.00  0.00    +0.096 C 
ATOM      3  N   UNL     1       1.834   6.586 -10.628  0.00  0.00    -0.254 N 
ATOM      4  C   UNL     1       1.442   6.693  -9.257  0.00  0.00    +0.136 C 
ATOM      5  C   UNL     1       0.317   6.133  -8.976  0.00  0.00    +0.024 C 
ATOM      6  C   UNL     1      -0.344   5.684 -10.376  0.00  0.00    +0.049 C 
ATOM      7  C   UNL     1       0.809   4.536 -10.607  0.00  0.00    +0.007 C 
ATOM      8  C   UNL     1       2.407   6.245 -11.887  0.00  0.00    +0.233 C 
ATOM      9  O   UNL     1       3.401   5.504 -12.097  0.00  0.00    -0.274 OA
ENDROOT
BRANCH   1  11
ATOM     10  C   UNL     1       1.606   6.534 -14.918  0.00  0.00    +0.036 C 
ATOM     11  C   UNL     1       1.087   7.394 -13.584  0.00  0.00    +0.162 C 
ATOM     12  O   UNL     1      -0.373   7.251 -14.042  0.00  0.00    -0.223 OA
ENDBRANCH   1  11
BRANCH   4  13
ATOM     13  C   UNL     1       2.370   7.168  -8.229  0.00  0.00    +0.401 C 
ATOM     14  O   UNL     1       2.251   8.482  -7.766  0.00  0.00    -0.239 OA
ATOM     15  O   UNL     1       3.398   6.543  -7.941  0.00  0.00    -0.239 OA
ENDBRANCH   4  13
BRANCH   5  16
ATOM     16  S   UNL     1       0.061   5.139  -7.493  0.00  0.00    -0.116 S 
BRANCH  16  17
ATOM     17  C   UNL     1       0.242   6.297  -5.978  0.00  0.00    +0.071 C 
ATOM     18  C   UNL     1      -1.070   5.838  -5.202  0.00  0.00    +0.039 C 
ATOM     19  C   UNL     1      -0.466   6.635  -3.855  0.00  0.00    +0.150 C 
ATOM     20  N   UNL     1       0.878   5.773  -3.821  0.00  0.00    -0.209 NA
ATOM     21  C   UNL     1       1.034   5.250  -5.082  0.00  0.00    +0.100 C 
BRANCH  19  22
ATOM     22  C   UNL     1      -1.210   5.595  -2.824  0.00  0.00    +0.242 C 
ATOM     23  N   UNL     1      -2.212   6.262  -2.113  0.00  0.00    -0.275 N 
ATOM     24  C   UNL     1      -3.539   6.317  -2.608  0.00  0.00    +0.115 C 
ATOM     25  C   UNL     1      -2.007   6.556  -0.704  0.00  0.00    +0.115 C 
ATOM     26  O   UNL     1      -0.397   4.834  -2.260  0.00  0.00    -0.273 OA
ENDBRANCH  19  22
ENDBRANCH  16  17
ENDBRANCH   5  16
TORSDOF 5
ENDMDL
MODEL 8
REMARK VINA RESULT:      -7.3      4.397      7.661
REMARK  Name = 
REMARK  5 active torsions:
REMARK  status: ('A' for Active; 'I' for Inactive)
REMARK    1  A    between atoms: C_2  and  C_4
REMARK    2  A    between atoms: C_8  and  C_9
REMARK    3  A    between atoms: C_12  and  S_13
REMARK    4  A    between atoms: S_13  and  C_14
REMARK    5  A    between atoms: C_17  and  C_18
REMARK                            x       y       z     vdW  Elec       q    Type
REMARK                         _______ _______ _______ _____ _____    ______ ____
ROOT
ATOM      1  C   UNL     1      -1.262   5.812  -4.451  0.00  0.00    +0.126 C 
ATOM      2  C   UNL     1      -0.127   7.061  -4.646  0.00  0.00    +0.096 C 
ATOM      3  N   UNL     1      -0.032   6.512  -6.101  0.00  0.00    -0.254 N 
ATOM      4  C   UNL     1       1.312   6.935  -6.347  0.00  0.00    +0.136 C 
ATOM      5  C   UNL     1       2.136   6.685  -5.389  0.00  0.00    +0.024 C 
ATOM      6  C   UNL     1       1.259   6.152  -4.146  0.00  0.00    +0.049 C 
ATOM      7  C   UNL     1       0.888   4.763  -4.941  0.00  0.00    +0.007 C 
ATOM      8  C   UNL     1      -1.289   5.844  -6.037  0.00  0.00    +0.233 C 
ATOM      9  O   UNL     1      -1.680   4.884  -6.748  0.00  0.00    -0.274 OA
ENDROOT
BRANCH   1  11
ATOM     10  C   UNL     1      -3.537   5.898  -3.397  0.00  0.00    +0.036 C 
ATOM     11  C   UNL     1      -2.565   6.938  -4.271  0.00  0.00    +0.162 C 
ATOM     12  O   UNL     1      -1.986   7.512  -2.969  0.00  0.00    -0.223 OA
ENDBRANCH   1  11
BRANCH   4  13
ATOM     13  C   UNL     1       1.747   7.372  -7.674  0.00  0.00    +0.401 C 
ATOM     14  O   UNL     1       1.915   6.416  -8.680  0.00  0.00    -0.239 OA
ATOM     15  O   UNL     1       2.209   8.504  -7.869  0.00  0.00    -0.239 OA
ENDBRANCH   4  13
BRANCH   5  16
ATOM     16  S   UNL     1       3.797   6.040  -5.670  0.00  0.00    -0.116 S 
BRANCH  16  17
ATOM     17  C   UNL     1       4.858   6.479  -4.137  0.00  0.00    +0.071 C 
ATOM     18  C   UNL     1       3.878   7.561  -3.504  0.00  0.00    +0.039 C 
ATOM     19  C   UNL     1       4.784   7.454  -2.096  0.00  0.00    +0.150 C 
ATOM     20  N   UNL     1       4.528   5.887  -1.930  0.00  0.00    -0.209 NA
ATOM     21  C   UNL     1       4.172   5.419  -3.172  0.00  0.00    +0.100 C 
BRANCH  19  22
ATOM     22  C   UNL     1       3.485   7.810  -1.155  0.00  0.00    +0.242 C 
ATOM     23  N   UNL     1       3.789   8.879  -0.307  0.00  0.00    -0.275 N 
ATOM     24  C   UNL     1       3.541  10.216  -0.708  0.00  0.00    +0.115 C 
ATOM     25  C   UNL     1       3.982   8.627   1.112  0.00  0.00    +0.115 C 
ATOM     26  O   UNL     1       2.914   6.781  -0.740  0.00  0.00    -0.273 OA
ENDBRANCH  19  22
ENDBRANCH  16  17
ENDBRANCH   5  16
TORSDOF 5
ENDMDL
MODEL 9
REMARK VINA RESULT:      -7.2      3.981      4.948
REMARK  Name = 
REMARK  5 active torsions:
REMARK  status: ('A' for Active; 'I' for Inactive)
REMARK    1  A    between atoms: C_2  and  C_4
REMARK    2  A    between atoms: C_8  and  C_9
REMARK    3  A    between atoms: C_12  and  S_13
REMARK    4  A    between atoms: S_13  and  C_14
REMARK    5  A    between atoms: C_17  and  C_18
REMARK                            x       y       z     vdW  Elec       q    Type
REMARK                         _______ _______ _______ _____ _____    ______ ____
ROOT
ATOM      1  C   UNL     1      -1.306   6.433  -3.330  0.00  0.00    +0.126 C 
ATOM      2  C   UNL     1      -1.164   5.261  -4.552  0.00  0.00    +0.096 C 
ATOM      3  N   UNL     1       0.357   5.363  -4.233  0.00  0.00    -0.254 N 
ATOM      4  C   UNL     1       0.821   4.977  -5.529  0.00  0.00    +0.136 C 
ATOM      5  C   UNL     1       0.215   5.554  -6.508  0.00  0.00    +0.024 C 
ATOM      6  C   UNL     1      -1.024   6.369  -5.876  0.00  0.00    +0.049 C 
ATOM      7  C   UNL     1      -0.010   7.434  -5.142  0.00  0.00    +0.007 C 
ATOM      8  C   UNL     1       0.150   5.933  -2.943  0.00  0.00    +0.233 C 
ATOM      9  O   UNL     1       0.965   6.613  -2.270  0.00  0.00    -0.274 OA
ENDROOT
BRANCH   1  11
ATOM     10  C   UNL     1      -2.535   6.482  -1.143  0.00  0.00    +0.036 C 
ATOM     11  C   UNL     1      -2.114   5.325  -2.273  0.00  0.00    +0.162 C 
ATOM     12  O   UNL     1      -3.462   5.514  -2.987  0.00  0.00    -0.223 OA
ENDBRANCH   1  11
BRANCH   4  13
ATOM     13  C   UNL     1       2.048   4.199  -5.704  0.00  0.00    +0.401 C 
ATOM     14  O   UNL     1       3.265   4.752  -5.295  0.00  0.00    -0.239 OA
ATOM     15  O   UNL     1       2.083   3.189  -6.419  0.00  0.00    -0.239 OA
ENDBRANCH   4  13
BRANCH   5  16
ATOM     16  S   UNL     1       1.081   6.198  -7.954  0.00  0.00    -0.116 S 
BRANCH  16  17
ATOM     17  C   UNL     1       0.018   5.794  -9.495  0.00  0.00    +0.071 C 
ATOM     18  C   UNL     1       0.729   6.794 -10.510  0.00  0.00    +0.039 C 
ATOM     19  C   UNL     1      -0.055   5.979 -11.750  0.00  0.00    +0.150 C 
ATOM     20  N   UNL     1       0.589   4.569 -11.368  0.00  0.00    -0.209 NA
ATOM     21  C   UNL     1       0.991   4.669 -10.057  0.00  0.00    +0.100 C 
BRANCH  19  22
ATOM     22  C   UNL     1       1.159   6.293 -12.812  0.00  0.00    +0.242 C 
ATOM     23  N   UNL     1       0.664   7.013 -13.903  0.00  0.00    -0.275 N 
ATOM     24  C   UNL     1       0.652   8.430 -13.893  0.00  0.00    +0.115 C 
ATOM     25  C   UNL     1       0.529   6.349 -15.190  0.00  0.00    +0.115 C 
ATOM     26  O   UNL     1       1.917   5.313 -12.958  0.00  0.00    -0.273 OA
ENDBRANCH  19  22
ENDBRANCH  16  17
ENDBRANCH   5  16
TORSDOF 5
ENDMDL
