MODEL 1
REMARK VINA RESULT:      -8.4      0.000      0.000
REMARK  Name = 
REMARK  1 active torsions:
REMARK  status: ('A' for Active; 'I' for Inactive)
REMARK    1  A    between atoms: C_7  and  C_9
REMARK                            x       y       z     vdW  Elec       q    Type
REMARK                         _______ _______ _______ _____ _____    ______ ____
ROOT
ATOM      1  C   UNL     1       1.847   5.706  -5.584  0.00  0.00    +0.163 C 
ATOM      2  N   UNL     1       2.002   5.479  -4.190  0.00  0.00    -0.181 N 
ATOM      3  C   UNL     1       3.277   5.257  -3.580  0.00  0.00    +0.139 C 
ATOM      4  S   UNL     1       0.661   5.740  -3.118  0.00  0.00    +0.077 S 
ATOM      5  O   UNL     1       0.308   4.463  -2.401  0.00  0.00    -0.150 OA
ATOM      6  O   UNL     1       0.940   6.829  -2.138  0.00  0.00    -0.150 OA
ATOM      7  C   UNL     1      -0.679   6.139  -4.187  0.00  0.00    +0.129 A 
ATOM      8  C   UNL     1      -0.591   5.600  -5.463  0.00  0.00    +0.059 A 
ATOM      9  C   UNL     1      -1.758   5.723  -6.210  0.00  0.00    +0.005 A 
ATOM     10  C   UNL     1      -2.757   6.616  -5.837  0.00  0.00    +0.000 A 
ATOM     11  C   UNL     1      -2.558   7.501  -4.784  0.00  0.00    +0.001 A 
ATOM     12  C   UNL     1      -1.555   7.173  -3.882  0.00  0.00    +0.020 A 
ATOM     13  C   UNL     1       0.686   5.342  -6.129  0.00  0.00    +0.216 C 
ATOM     14  O   UNL     1       0.691   5.081  -7.505  0.00  0.00    -0.285 OA
ENDROOT
BRANCH   1  20
ATOM     15  C   UNL     1       6.617   6.519 -11.654  0.00  0.00    +0.040 C 
ATOM     16  C   UNL     1       5.685   6.165 -10.553  0.00  0.00    +0.029 A 
ATOM     17  S   UNL     1       5.958   5.555  -8.972  0.00  0.00    -0.054 S 
ATOM     18  C   UNL     1       4.369   5.747  -8.351  0.00  0.00    +0.186 A 
ATOM     19  N   UNL     1       3.734   5.219  -7.185  0.00  0.00    -0.149 NA
ATOM     20  C   UNL     1       2.994   6.117  -6.374  0.00  0.00    +0.289 C 
ATOM     21  O   UNL     1       3.289   7.349  -6.445  0.00  0.00    -0.266 OA
ATOM     22  N   UNL     1       3.839   6.541  -9.314  0.00  0.00    -0.221 NA
ATOM     23  C   UNL     1       4.297   6.238 -10.523  0.00  0.00    +0.103 A 
ENDBRANCH   1  20
TORSDOF 1
ENDMDL
MODEL 2
REMARK VINA RESULT:      -8.2      3.063      8.228
REMARK  Name = 
REMARK  1 active torsions:
REMARK  status: ('A' for Active; 'I' for Inactive)
REMARK    1  A    between atoms: C_7  and  C_9
REMARK                            x       y       z     vdW  Elec       q    Type
REMARK                         _______ _______ _______ _____ _____    ______ ____
ROOT
ATOM      1  C   UNL     1       2.924   5.644 -10.180  0.00  0.00    +0.163 C 
ATOM      2  N   UNL     1       2.750   5.409 -11.570  0.00  0.00    -0.181 N 
ATOM      3  C   UNL     1       1.469   5.161 -12.158  0.00  0.00    +0.139 C 
ATOM      4  S   UNL     1       4.068   5.692 -12.666  0.00  0.00    +0.077 S 
ATOM      5  O   UNL     1       4.433   4.421 -13.385  0.00  0.00    -0.150 OA
ATOM      6  O   UNL     1       3.751   6.773 -13.644  0.00  0.00    -0.150 OA
ATOM      7  C   UNL     1       5.417   6.121 -11.621  0.00  0.00    +0.129 A 
ATOM      8  C   UNL     1       5.362   5.583 -10.342  0.00  0.00    +0.059 A 
ATOM      9  C   UNL     1       6.538   5.731  -9.615  0.00  0.00    +0.005 A 
ATOM     10  C   UNL     1       7.514   6.641 -10.007  0.00  0.00    +0.000 A 
ATOM     11  C   UNL     1       7.280   7.520 -11.059  0.00  0.00    +0.001 A 
ATOM     12  C   UNL     1       6.268   7.170 -11.943  0.00  0.00    +0.020 A 
ATOM     13  C   UNL     1       4.101   5.303  -9.654  0.00  0.00    +0.216 C 
ATOM     14  O   UNL     1       4.124   5.047  -8.277  0.00  0.00    -0.285 OA
ENDROOT
BRANCH   1  20
ATOM     15  C   UNL     1      -1.976   6.037  -4.171  0.00  0.00    +0.040 C 
ATOM     16  C   UNL     1      -1.034   5.756  -5.286  0.00  0.00    +0.029 A 
ATOM     17  S   UNL     1      -1.297   5.371  -6.938  0.00  0.00    -0.054 S 
ATOM     18  C   UNL     1       0.321   5.522  -7.491  0.00  0.00    +0.186 A 
ATOM     19  N   UNL     1       0.956   5.099  -8.699  0.00  0.00    -0.149 NA
ATOM     20  C   UNL     1       1.783   6.036  -9.372  0.00  0.00    +0.289 C 
ATOM     21  O   UNL     1       1.571   7.267  -9.152  0.00  0.00    -0.266 OA
ATOM     22  N   UNL     1       0.873   6.149  -6.423  0.00  0.00    -0.221 NA
ATOM     23  C   UNL     1       0.356   5.731  -5.273  0.00  0.00    +0.103 A 
ENDBRANCH   1  20
TORSDOF 1
ENDMDL
MODEL 3
REMARK VINA RESULT:      -8.1      1.518      1.697
REMARK  Name = 
REMARK  1 active torsions:
REMARK  status: ('A' for Active; 'I' for Inactive)
REMARK    1  A    between atoms: C_7  and  C_9
REMARK                            x       y       z     vdW  Elec       q    Type
REMARK                         _______ _______ _______ _____ _____    ______ ____
ROOT
ATOM      1  C   UNL     1       2.243   5.965  -7.082  0.00  0.00    +0.163 C 
ATOM      2  N   UNL     1       2.772   5.913  -5.764  0.00  0.00    -0.181 N 
ATOM      3  C   UNL     1       4.175   5.974  -5.492  0.00  0.00    +0.139 C 
ATOM      4  S   UNL     1       1.706   6.055  -4.400  0.00  0.00    +0.077 S 
ATOM      5  O   UNL     1       1.786   4.818  -3.544  0.00  0.00    -0.150 OA
ATOM      6  O   UNL     1       2.004   7.271  -3.590  0.00  0.00    -0.150 OA
ATOM      7  C   UNL     1       0.097   6.109  -5.109  0.00  0.00    +0.129 A 
ATOM      8  C   UNL     1      -0.027   5.462  -6.332  0.00  0.00    +0.059 A 
ATOM      9  C   UNL     1      -1.342   5.309  -6.759  0.00  0.00    +0.005 A 
ATOM     10  C   UNL     1      -2.371   6.054  -6.194  0.00  0.00    +0.000 A 
ATOM     11  C   UNL     1      -2.094   7.065  -5.281  0.00  0.00    +0.001 A 
ATOM     12  C   UNL     1      -0.859   7.006  -4.650  0.00  0.00    +0.020 A 
ATOM     13  C   UNL     1       1.075   5.355  -7.287  0.00  0.00    +0.216 C 
ATOM     14  O   UNL     1       0.796   4.957  -8.601  0.00  0.00    -0.285 OA
ENDROOT
BRANCH   1  20
ATOM     15  C   UNL     1       5.865   6.381 -13.936  0.00  0.00    +0.040 C 
ATOM     16  C   UNL     1       5.233   6.102 -12.621  0.00  0.00    +0.029 A 
ATOM     17  S   UNL     1       5.831   6.216 -11.015  0.00  0.00    -0.054 S 
ATOM     18  C   UNL     1       4.347   5.999 -10.179  0.00  0.00    +0.186 A 
ATOM     19  N   UNL     1       4.061   5.703  -8.811  0.00  0.00    -0.149 NA
ATOM     20  C   UNL     1       3.066   6.479  -8.163  0.00  0.00    +0.289 C 
ATOM     21  O   UNL     1       2.817   7.629  -8.639  0.00  0.00    -0.266 OA
ATOM     22  N   UNL     1       3.477   6.161 -11.207  0.00  0.00    -0.221 NA
ATOM     23  C   UNL     1       3.945   5.659 -12.345  0.00  0.00    +0.103 A 
ENDBRANCH   1  20
TORSDOF 1
ENDMDL
MODEL 4
REMARK VINA RESULT:      -8.0      2.606      7.873
REMARK  Name = 
REMARK  1 active torsions:
REMARK  status: ('A' for Active; 'I' for Inactive)
REMARK    1  A    between atoms: C_7  and  C_9
REMARK                            x       y       z     vdW  Elec       q    Type
REMARK                         _______ _______ _______ _____ _____    ______ ____
ROOT
ATOM      1  C   UNL     1       3.460   5.211  -8.996  0.00  0.00    +0.163 C 
ATOM      2  N   UNL     1       2.792   5.140 -10.248  0.00  0.00    -0.181 N 
ATOM      3  C   UNL     1       1.428   4.727 -10.374  0.00  0.00    +0.139 C 
ATOM      4  S   UNL     1       3.532   5.827 -11.661  0.00  0.00    +0.077 S 
ATOM      5  O   UNL     1       3.753   4.764 -12.705  0.00  0.00    -0.150 OA
ATOM      6  O   UNL     1       2.723   6.947 -12.220  0.00  0.00    -0.150 OA
ATOM      7  C   UNL     1       5.113   6.365 -11.106  0.00  0.00    +0.129 A 
ATOM      8  C   UNL     1       5.629   5.656 -10.029  0.00  0.00    +0.059 A 
ATOM      9  C   UNL     1       6.964   5.932  -9.759  0.00  0.00    +0.005 A 
ATOM     10  C   UNL     1       7.583   7.062 -10.281  0.00  0.00    +0.000 A 
ATOM     11  C   UNL     1       6.847   8.014 -10.978  0.00  0.00    +0.001 A 
ATOM     12  C   UNL     1       5.627   7.596 -11.492  0.00  0.00    +0.020 A 
ATOM     13  C   UNL     1       4.782   5.040  -9.007  0.00  0.00    +0.216 C 
ATOM     14  O   UNL     1       5.371   4.606  -7.813  0.00  0.00    -0.285 OA
ENDROOT
BRANCH   1  20
ATOM     15  C   UNL     1      -2.565   6.245  -4.210  0.00  0.00    +0.040 C 
ATOM     16  C   UNL     1      -1.472   6.225  -5.216  0.00  0.00    +0.029 A 
ATOM     17  S   UNL     1       0.115   6.880  -5.197  0.00  0.00    -0.054 S 
ATOM     18  C   UNL     1       0.718   6.116  -6.611  0.00  0.00    +0.186 A 
ATOM     19  N   UNL     1       1.880   6.367  -7.404  0.00  0.00    -0.149 NA
ATOM     20  C   UNL     1       2.680   5.253  -7.771  0.00  0.00    +0.289 C 
ATOM     21  O   UNL     1       2.607   4.216  -7.045  0.00  0.00    -0.266 OA
ATOM     22  N   UNL     1      -0.253   5.190  -6.806  0.00  0.00    -0.221 NA
ATOM     23  C   UNL     1      -1.457   5.649  -6.481  0.00  0.00    +0.103 A 
ENDBRANCH   1  20
TORSDOF 1
ENDMDL
MODEL 5
REMARK VINA RESULT:      -7.9      1.724      1.947
REMARK  Name = 
REMARK  1 active torsions:
REMARK  status: ('A' for Active; 'I' for Inactive)
REMARK    1  A    between atoms: C_7  and  C_9
REMARK                            x       y       z     vdW  Elec       q    Type
REMARK                         _______ _______ _______ _____ _____    ______ ____
ROOT
ATOM      1  C   UNL     1       1.878   5.571  -4.190  0.00  0.00    +0.163 C 
ATOM      2  N   UNL     1       2.524   5.440  -2.932  0.00  0.00    -0.181 N 
ATOM      3  C   UNL     1       3.941   5.292  -2.802  0.00  0.00    +0.139 C 
ATOM      4  S   UNL     1       1.634   5.735  -1.469  0.00  0.00    +0.077 S 
ATOM      5  O   UNL     1       1.618   4.499  -0.609  0.00  0.00    -0.150 OA
ATOM      6  O   UNL     1       2.188   6.892  -0.710  0.00  0.00    -0.150 OA
ATOM      7  C   UNL     1      -0.013   6.027  -2.014  0.00  0.00    +0.129 A 
ATOM      8  C   UNL     1      -0.354   5.407  -3.209  0.00  0.00    +0.059 A 
ATOM      9  C   UNL     1      -1.713   5.450  -3.500  0.00  0.00    +0.005 A 
ATOM     10  C   UNL     1      -2.559   6.338  -2.845  0.00  0.00    +0.000 A 
ATOM     11  C   UNL     1      -2.045   7.296  -1.978  0.00  0.00    +0.001 A 
ATOM     12  C   UNL     1      -0.775   7.055  -1.474  0.00  0.00    +0.020 A 
ATOM     13  C   UNL     1       0.619   5.140  -4.269  0.00  0.00    +0.216 C 
ATOM     14  O   UNL     1       0.152   4.790  -5.542  0.00  0.00    -0.285 OA
ENDROOT
BRANCH   1  20
ATOM     15  C   UNL     1       4.739   5.512 -11.407  0.00  0.00    +0.040 C 
ATOM     16  C   UNL     1       4.216   5.316 -10.030  0.00  0.00    +0.029 A 
ATOM     17  S   UNL     1       4.998   5.287  -8.502  0.00  0.00    -0.054 S 
ATOM     18  C   UNL     1       3.601   5.312  -7.505  0.00  0.00    +0.186 A 
ATOM     19  N   UNL     1       3.420   5.038  -6.114  0.00  0.00    -0.149 NA
ATOM     20  C   UNL     1       2.654   5.960  -5.355  0.00  0.00    +0.289 C 
ATOM     21  O   UNL     1       2.559   7.145  -5.796  0.00  0.00    -0.266 OA
ATOM     22  N   UNL     1       2.664   5.646  -8.428  0.00  0.00    -0.221 NA
ATOM     23  C   UNL     1       2.909   5.097  -9.612  0.00  0.00    +0.103 A 
ENDBRANCH   1  20
TORSDOF 1
ENDMDL
MODEL 6
REMARK VINA RESULT:      -7.7      2.831      7.815
REMARK  Name = 
REMARK  1 active torsions:
REMARK  status: ('A' for Active; 'I' for Inactive)
REMARK    1  A    between atoms: C_7  and  C_9
REMARK                            x       y       z     vdW  Elec       q    Type
REMARK                         _______ _______ _______ _____ _____    ______ ____
ROOT
ATOM      1  C   UNL     1       3.367   5.753  -8.798  0.00  0.00    +0.163 C 
ATOM      2  N   UNL     1       2.734   5.521 -10.049  0.00  0.00    -0.181 N 
ATOM      3  C   UNL     1       1.339   5.227 -10.167  0.00  0.00    +0.139 C 
ATOM      4  S   UNL     1       3.586   5.863 -11.524  0.00  0.00    +0.077 S 
ATOM      5  O   UNL     1       3.726   4.612 -12.349  0.00  0.00    -0.150 OA
ATOM      6  O   UNL     1       2.916   6.937 -12.312  0.00  0.00    -0.150 OA
ATOM      7  C   UNL     1       5.196   6.337 -10.996  0.00  0.00    +0.129 A 
ATOM      8  C   UNL     1       5.601   5.789  -9.786  0.00  0.00    +0.059 A 
ATOM      9  C   UNL     1       6.950   5.979  -9.503  0.00  0.00    +0.005 A 
ATOM     10  C   UNL     1       7.700   6.929 -10.187  0.00  0.00    +0.000 A 
ATOM     11  C   UNL     1       7.088   7.805 -11.078  0.00  0.00    +0.001 A 
ATOM     12  C   UNL     1       5.848   7.421 -11.569  0.00  0.00    +0.020 A 
ATOM     13  C   UNL     1       4.663   5.455  -8.713  0.00  0.00    +0.216 C 
ATOM     14  O   UNL     1       5.166   5.191  -7.434  0.00  0.00    -0.285 OA
ENDROOT
BRANCH   1  20
ATOM     15  C   UNL     1       0.736   5.815  -1.494  0.00  0.00    +0.040 C 
ATOM     16  C   UNL     1       1.254   5.597  -2.869  0.00  0.00    +0.029 A 
ATOM     17  S   UNL     1       0.457   5.283  -4.357  0.00  0.00    -0.054 S 
ATOM     18  C   UNL     1       1.801   5.478  -5.407  0.00  0.00    +0.186 A 
ATOM     19  N   UNL     1       1.998   5.118  -6.776  0.00  0.00    -0.149 NA
ATOM     20  C   UNL     1       2.558   6.094  -7.640  0.00  0.00    +0.289 C 
ATOM     21  O   UNL     1       2.436   7.311  -7.306  0.00  0.00    -0.266 OA
ATOM     22  N   UNL     1       2.678   6.064  -4.554  0.00  0.00    -0.221 NA
ATOM     23  C   UNL     1       2.569   5.589  -3.319  0.00  0.00    +0.103 A 
ENDBRANCH   1  20
TORSDOF 1
ENDMDL
MODEL 7
REMARK VINA RESULT:      -7.6      1.949      3.984
REMARK  Name = 
REMARK  1 active torsions:
REMARK  status: ('A' for Active; 'I' for Inactive)
REMARK    1  A    between atoms: C_7  and  C_9
REMARK                            x       y       z     vdW  Elec       q    Type
REMARK                         _______ _______ _______ _____ _____    ______ ____
ROOT
ATOM      1  C   UNL     1       2.004   6.089  -4.919  0.00  0.00    +0.163 C 
ATOM      2  N   UNL     1       0.756   5.858  -4.281  0.00  0.00    -0.181 N 
ATOM      3  C   UNL     1      -0.405   5.416  -4.991  0.00  0.00    +0.139 C 
ATOM      4  S   UNL     1       0.664   5.837  -2.546  0.00  0.00    +0.077 S 
ATOM      5  O   UNL     1      -0.275   6.910  -2.060  0.00  0.00    -0.150 OA
ATOM      6  O   UNL     1       0.244   4.502  -2.031  0.00  0.00    -0.150 OA
ATOM      7  C   UNL     1       2.286   6.269  -2.020  0.00  0.00    +0.129 A 
ATOM      8  C   UNL     1       3.001   7.059  -2.910  0.00  0.00    +0.059 A 
ATOM      9  C   UNL     1       4.175   7.585  -2.382  0.00  0.00    +0.005 A 
ATOM     10  C   UNL     1       4.736   7.064  -1.221  0.00  0.00    +0.000 A 
ATOM     11  C   UNL     1       4.208   5.920  -0.633  0.00  0.00    +0.001 A 
ATOM     12  C   UNL     1       2.903   5.595  -0.974  0.00  0.00    +0.020 A 
ATOM     13  C   UNL     1       2.810   6.992  -4.359  0.00  0.00    +0.216 C 
ATOM     14  O   UNL     1       3.760   7.592  -5.195  0.00  0.00    -0.285 OA
ENDROOT
BRANCH   1  20
ATOM     15  C   UNL     1       4.601   5.347 -12.197  0.00  0.00    +0.040 C 
ATOM     16  C   UNL     1       4.054   5.684 -10.858  0.00  0.00    +0.029 A 
ATOM     17  S   UNL     1       2.473   5.559 -10.202  0.00  0.00    -0.054 S 
ATOM     18  C   UNL     1       2.857   5.878  -8.559  0.00  0.00    +0.186 A 
ATOM     19  N   UNL     1       2.036   6.212  -7.439  0.00  0.00    -0.149 NA
ATOM     20  C   UNL     1       2.257   5.509  -6.226  0.00  0.00    +0.289 C 
ATOM     21  O   UNL     1       2.810   4.370  -6.303  0.00  0.00    -0.266 OA
ATOM     22  N   UNL     1       4.207   5.755  -8.609  0.00  0.00    -0.221 NA
ATOM     23  C   UNL     1       4.711   6.210  -9.751  0.00  0.00    +0.103 A 
ENDBRANCH   1  20
TORSDOF 1
ENDMDL
MODEL 8
REMARK VINA RESULT:      -7.6      2.534      4.258
REMARK  Name = 
REMARK  1 active torsions:
REMARK  status: ('A' for Active; 'I' for Inactive)
REMARK    1  A    between atoms: C_7  and  C_9
REMARK                            x       y       z     vdW  Elec       q    Type
REMARK                         _______ _______ _______ _____ _____    ______ ____
ROOT
ATOM      1  C   UNL     1       1.250   5.962  -6.248  0.00  0.00    +0.163 C 
ATOM      2  N   UNL     1       0.138   5.846  -5.371  0.00  0.00    -0.181 N 
ATOM      3  C   UNL     1      -1.162   5.452  -5.819  0.00  0.00    +0.139 C 
ATOM      4  S   UNL     1       0.384   5.910  -3.653  0.00  0.00    +0.077 S 
ATOM      5  O   UNL     1      -0.378   7.065  -3.058  0.00  0.00    -0.150 OA
ATOM      6  O   UNL     1      -0.005   4.632  -2.991  0.00  0.00    -0.150 OA
ATOM      7  C   UNL     1       2.100   6.254  -3.471  0.00  0.00    +0.129 A 
ATOM      8  C   UNL     1       2.672   6.953  -4.526  0.00  0.00    +0.059 A 
ATOM      9  C   UNL     1       3.955   7.421  -4.264  0.00  0.00    +0.005 A 
ATOM     10  C   UNL     1       4.700   6.917  -3.203  0.00  0.00    +0.000 A 
ATOM     11  C   UNL     1       4.232   5.839  -2.460  0.00  0.00    +0.001 A 
ATOM     12  C   UNL     1       2.868   5.589  -2.526  0.00  0.00    +0.020 A 
ATOM     13  C   UNL     1       2.200   6.833  -5.906  0.00  0.00    +0.216 C 
ATOM     14  O   UNL     1       3.002   7.328  -6.941  0.00  0.00    -0.285 OA
ENDROOT
BRANCH   1  20
ATOM     15  C   UNL     1       1.459   4.996 -13.948  0.00  0.00    +0.040 C 
ATOM     16  C   UNL     1       1.305   5.351 -12.514  0.00  0.00    +0.029 A 
ATOM     17  S   UNL     1       0.111   4.936 -11.353  0.00  0.00    -0.054 S 
ATOM     18  C   UNL     1       0.906   5.529  -9.952  0.00  0.00    +0.186 A 
ATOM     19  N   UNL     1       0.434   5.791  -8.629  0.00  0.00    -0.149 NA
ATOM     20  C   UNL     1       1.210   5.307  -7.544  0.00  0.00    +0.289 C 
ATOM     21  O   UNL     1       1.985   4.329  -7.769  0.00  0.00    -0.266 OA
ATOM     22  N   UNL     1       2.151   5.721 -10.457  0.00  0.00    -0.221 NA
ATOM     23  C   UNL     1       2.122   6.143 -11.716  0.00  0.00    +0.103 A 
ENDBRANCH   1  20
TORSDOF 1
ENDMDL
MODEL 9
REMARK VINA RESULT:      -7.5      2.681      3.022
REMARK  Name = 
REMARK  1 active torsions:
REMARK  status: ('A' for Active; 'I' for Inactive)
REMARK    1  A    between atoms: C_7  and  C_9
REMARK                            x       y       z     vdW  Elec       q    Type
REMARK                         _______ _______ _______ _____ _____    ______ ____
ROOT
ATOM      1  C   UNL     1       1.132   6.088  -6.938  0.00  0.00    +0.163 C 
ATOM      2  N   UNL     1       2.114   5.932  -5.924  0.00  0.00    -0.181 N 
ATOM      3  C   UNL     1       3.514   5.855  -6.209  0.00  0.00    +0.139 C 
ATOM      4  S   UNL     1       1.668   6.108  -4.254  0.00  0.00    +0.077 S 
ATOM      5  O   UNL     1       1.945   4.834  -3.501  0.00  0.00    -0.150 OA
ATOM      6  O   UNL     1       2.370   7.257  -3.613  0.00  0.00    -0.150 OA
ATOM      7  C   UNL     1      -0.076   6.337  -4.293  0.00  0.00    +0.129 A 
ATOM      8  C   UNL     1      -0.720   5.757  -5.378  0.00  0.00    +0.059 A 
ATOM      9  C   UNL     1      -2.106   5.741  -5.270  0.00  0.00    +0.005 A 
ATOM     10  C   UNL     1      -2.764   6.549  -4.349  0.00  0.00    +0.000 A 
ATOM     11  C   UNL     1      -2.060   7.491  -3.606  0.00  0.00    +0.001 A 
ATOM     12  C   UNL     1      -0.691   7.295  -3.497  0.00  0.00    +0.020 A 
ATOM     13  C   UNL     1      -0.080   5.594  -6.684  0.00  0.00    +0.216 C 
ATOM     14  O   UNL     1      -0.877   5.280  -7.792  0.00  0.00    -0.285 OA
ENDROOT
BRANCH   1  20
ATOM     15  C   UNL     1       0.898   7.541 -14.560  0.00  0.00    +0.040 C 
ATOM     16  C   UNL     1       0.871   7.073 -13.151  0.00  0.00    +0.029 A 
ATOM     17  S   UNL     1       2.048   6.279 -12.185  0.00  0.00    -0.054 S 
ATOM     18  C   UNL     1       1.260   6.418 -10.666  0.00  0.00    +0.186 A 
ATOM     19  N   UNL     1       1.486   5.766  -9.415  0.00  0.00    -0.149 NA
ATOM     20  C   UNL     1       1.527   6.573  -8.249  0.00  0.00    +0.289 C 
ATOM     21  O   UNL     1       1.812   7.800  -8.396  0.00  0.00    -0.266 OA
ATOM     22  N   UNL     1       0.305   7.327 -10.983  0.00  0.00    -0.221 NA
ATOM     23  C   UNL     1      -0.155   7.162 -12.218  0.00  0.00    +0.103 A 
ENDBRANCH   1  20
TORSDOF 1
ENDMDL
