MODEL 1
REMARK VINA RESULT:      -9.9      0.000      0.000
REMARK  Name = 
REMARK  6 active torsions:
REMARK  status: ('A' for Active; 'I' for Inactive)
REMARK    1  A    between atoms: C_3  and  C_4
REMARK    2  A    between atoms: C_4  and  C_5
REMARK    3  A    between atoms: C_5  and  C_6
REMARK    4  A    between atoms: C_6  and  C_8
REMARK    5  A    between atoms: C_15  and  C_16
REMARK    6  A    between atoms: N_23  and  C_24
REMARK                            x       y       z     vdW  Elec       q    Type
REMARK                         _______ _______ _______ _____ _____    ______ ____
ROOT
ATOM      1  O   UNL     1       2.114   8.533  -7.825  0.00  0.00    -0.274 OA
ATOM      2  C   UNL     1       2.092   7.535  -7.602  0.00  0.00    +0.231 C 
ATOM      3  N   UNL     1       1.524   6.381  -8.128  0.00  0.00    -0.256 N 
ATOM      4  C   UNL     1       1.363   5.614  -6.770  0.00  0.00    +0.111 C 
ATOM      5  C   UNL     1       2.365   6.871  -6.178  0.00  0.00    +0.100 C 
ENDROOT
BRANCH   3   6
ATOM      6  C   UNL     1       1.000   5.916  -9.328  0.00  0.00    +0.054 A 
ATOM      7  C   UNL     1       1.148   4.566  -9.595  0.00  0.00    +0.017 A 
ATOM      8  C   UNL     1       0.665   4.051 -10.768  0.00  0.00    +0.031 A 
ATOM      9  C   UNL     1       0.226   4.953 -11.716  0.00  0.00    +0.140 A 
ATOM     10  F   UNL     1       0.078   4.519 -12.985  0.00  0.00    -0.204 F 
ATOM     11  C   UNL     1      -0.018   6.284 -11.443  0.00  0.00    +0.031 A 
ATOM     12  C   UNL     1       0.475   6.800 -10.248  0.00  0.00    +0.017 A 
ENDBRANCH   3   6
BRANCH   4  13
ATOM     13  C   UNL     1      -0.060   6.298  -6.418  0.00  0.00    -0.003 A 
ATOM     14  C   UNL     1      -1.129   5.620  -7.000  0.00  0.00    +0.001 A 
ATOM     15  C   UNL     1      -2.286   5.395  -6.262  0.00  0.00    +0.042 A 
ATOM     16  C   UNL     1      -2.349   5.927  -4.981  0.00  0.00    +0.196 A 
ATOM     17  O   UNL     1      -3.011   5.282  -3.932  0.00  0.00    -0.287 OA
ATOM     18  C   UNL     1      -1.574   7.065  -4.796  0.00  0.00    +0.042 A 
ATOM     19  C   UNL     1      -0.274   6.958  -5.293  0.00  0.00    +0.001 A 
ENDBRANCH   4  13
BRANCH   5  20
ATOM     20  C   UNL     1       3.705   6.091  -6.682  0.00  0.00    +0.014 C 
BRANCH  20  21
ATOM     21  C   UNL     1       4.598   6.146  -5.519  0.00  0.00    +0.038 C 
BRANCH  21  22
ATOM     22  C   UNL     1       4.011   7.303  -4.480  0.00  0.00    +0.174 C 
ATOM     23  O   UNL     1       5.311   8.121  -4.450  0.00  0.00    -0.218 OA
BRANCH  22  24
ATOM     24  C   UNL     1       4.420   6.428  -3.155  0.00  0.00    +0.008 A 
ATOM     25  C   UNL     1       3.439   5.478  -2.877  0.00  0.00    +0.000 A 
ATOM     26  C   UNL     1       2.768   5.427  -1.660  0.00  0.00    +0.029 A 
ATOM     27  C   UNL     1       3.059   6.353  -0.665  0.00  0.00    +0.140 A 
ATOM     28  F   UNL     1       2.113   6.816   0.200  0.00  0.00    -0.204 F 
ATOM     29  C   UNL     1       4.312   6.931  -0.775  0.00  0.00    +0.029 A 
ATOM     30  C   UNL     1       4.769   7.187  -2.061  0.00  0.00    +0.000 A 
ENDBRANCH  22  24
ENDBRANCH  21  22
ENDBRANCH  20  21
ENDBRANCH   5  20
TORSDOF 6
ENDMDL
MODEL 2
REMARK VINA RESULT:      -9.8      3.432      6.923
REMARK  Name = 
REMARK  6 active torsions:
REMARK  status: ('A' for Active; 'I' for Inactive)
REMARK    1  A    between atoms: C_3  and  C_4
REMARK    2  A    between atoms: C_4  and  C_5
REMARK    3  A    between atoms: C_5  and  C_6
REMARK    4  A    between atoms: C_6  and  C_8
REMARK    5  A    between atoms: C_15  and  C_16
REMARK    6  A    between atoms: N_23  and  C_24
REMARK                            x       y       z     vdW  Elec       q    Type
REMARK                         _______ _______ _______ _____ _____    ______ ____
ROOT
ATOM      1  O   UNL     1       2.442   3.752  -7.459  0.00  0.00    -0.274 OA
ATOM      2  C   UNL     1       2.408   4.775  -7.460  0.00  0.00    +0.231 C 
ATOM      3  N   UNL     1       2.668   5.809  -6.570  0.00  0.00    -0.256 N 
ATOM      4  C   UNL     1       1.618   6.822  -7.143  0.00  0.00    +0.111 C 
ATOM      5  C   UNL     1       1.545   5.698  -8.434  0.00  0.00    +0.100 C 
ENDROOT
BRANCH   3   6
ATOM      6  C   UNL     1       3.381   6.038  -5.399  0.00  0.00    +0.054 A 
ATOM      7  C   UNL     1       3.389   5.021  -4.461  0.00  0.00    +0.017 A 
ATOM      8  C   UNL     1       4.063   5.192  -3.281  0.00  0.00    +0.031 A 
ATOM      9  C   UNL     1       4.539   6.458  -3.009  0.00  0.00    +0.140 A 
ATOM     10  F   UNL     1       4.887   6.746  -1.738  0.00  0.00    -0.204 F 
ATOM     11  C   UNL     1       4.627   7.457  -3.958  0.00  0.00    +0.031 A 
ATOM     12  C   UNL     1       3.941   7.275  -5.155  0.00  0.00    +0.017 A 
ENDBRANCH   3   6
BRANCH   4  13
ATOM     13  C   UNL     1       0.392   6.222  -6.275  0.00  0.00    -0.003 A 
ATOM     14  C   UNL     1       0.229   6.888  -5.062  0.00  0.00    +0.001 A 
ATOM     15  C   UNL     1      -1.049   7.216  -4.622  0.00  0.00    +0.042 A 
ATOM     16  C   UNL     1      -2.126   6.794  -5.391  0.00  0.00    +0.196 A 
ATOM     17  O   UNL     1      -3.295   7.547  -5.521  0.00  0.00    -0.287 OA
ATOM     18  C   UNL     1      -1.880   5.647  -6.136  0.00  0.00    +0.042 A 
ATOM     19  C   UNL     1      -0.670   5.665  -6.831  0.00  0.00    +0.001 A 
ENDBRANCH   4  13
BRANCH   5  20
ATOM     20  C   UNL     1       2.856   6.363  -9.137  0.00  0.00    +0.014 C 
BRANCH  20  21
ATOM     21  C   UNL     1       3.183   5.429 -10.219  0.00  0.00    +0.038 C 
BRANCH  21  22
ATOM     22  C   UNL     1       3.902   6.296 -11.441  0.00  0.00    +0.174 C 
ATOM     23  O   UNL     1       4.688   5.101 -12.002  0.00  0.00    -0.218 OA
BRANCH  22  24
ATOM     24  C   UNL     1       5.137   6.777 -10.475  0.00  0.00    +0.008 A 
ATOM     25  C   UNL     1       5.934   7.711 -11.133  0.00  0.00    +0.000 A 
ATOM     26  C   UNL     1       7.294   7.520 -11.345  0.00  0.00    +0.029 A 
ATOM     27  C   UNL     1       7.911   6.355 -10.904  0.00  0.00    +0.140 A 
ATOM     28  F   UNL     1       8.948   5.778 -11.575  0.00  0.00    -0.204 F 
ATOM     29  C   UNL     1       7.243   5.713  -9.875  0.00  0.00    +0.029 A 
ATOM     30  C   UNL     1       5.856   5.742  -9.920  0.00  0.00    +0.000 A 
ENDBRANCH  22  24
ENDBRANCH  21  22
ENDBRANCH  20  21
ENDBRANCH   5  20
TORSDOF 6
ENDMDL
MODEL 3
REMARK VINA RESULT:      -9.7      3.531      6.771
REMARK  Name = 
REMARK  6 active torsions:
REMARK  status: ('A' for Active; 'I' for Inactive)
REMARK    1  A    between atoms: C_3  and  C_4
REMARK    2  A    between atoms: C_4  and  C_5
REMARK    3  A    between atoms: C_5  and  C_6
REMARK    4  A    between atoms: C_6  and  C_8
REMARK    5  A    between atoms: C_15  and  C_16
REMARK    6  A    between atoms: N_23  and  C_24
REMARK                            x       y       z     vdW  Elec       q    Type
REMARK                         _______ _______ _______ _____ _____    ______ ____
ROOT
ATOM      1  O   UNL     1       2.957   7.634  -7.026  0.00  0.00    -0.274 OA
ATOM      2  C   UNL     1       2.667   6.669  -6.844  0.00  0.00    +0.231 C 
ATOM      3  N   UNL     1       1.589   6.019  -6.256  0.00  0.00    -0.256 N 
ATOM      4  C   UNL     1       2.381   4.765  -5.746  0.00  0.00    +0.111 C 
ATOM      5  C   UNL     1       3.615   5.390  -6.756  0.00  0.00    +0.100 C 
ENDROOT
BRANCH   3   6
ATOM      6  C   UNL     1       0.263   6.264  -5.923  0.00  0.00    +0.054 A 
ATOM      7  C   UNL     1       0.002   7.416  -5.202  0.00  0.00    +0.017 A 
ATOM      8  C   UNL     1      -1.285   7.706  -4.831  0.00  0.00    +0.031 A 
ATOM      9  C   UNL     1      -2.232   6.724  -5.032  0.00  0.00    +0.140 A 
ATOM     10  F   UNL     1      -3.406   6.830  -4.376  0.00  0.00    -0.204 F 
ATOM     11  C   UNL     1      -2.020   5.615  -5.827  0.00  0.00    +0.031 A 
ATOM     12  C   UNL     1      -0.710   5.327  -6.200  0.00  0.00    +0.017 A 
ENDBRANCH   3   6
BRANCH   4  13
ATOM     13  C   UNL     1       2.855   5.477  -4.373  0.00  0.00    -0.003 A 
ATOM     14  C   UNL     1       1.824   5.558  -3.439  0.00  0.00    +0.001 A 
ATOM     15  C   UNL     1       2.082   5.271  -2.103  0.00  0.00    +0.042 A 
ATOM     16  C   UNL     1       3.391   4.980  -1.744  0.00  0.00    +0.196 A 
ATOM     17  O   UNL     1       3.709   4.059  -0.742  0.00  0.00    -0.287 OA
ATOM     18  C   UNL     1       4.350   5.561  -2.565  0.00  0.00    +0.042 A 
ATOM     19  C   UNL     1       4.099   5.415  -3.930  0.00  0.00    +0.001 A 
ENDBRANCH   4  13
BRANCH   5  20
ATOM     20  C   UNL     1       2.955   4.681  -8.066  0.00  0.00    +0.014 C 
BRANCH  20  21
ATOM     21  C   UNL     1       4.069   4.600  -9.017  0.00  0.00    +0.038 C 
BRANCH  21  22
ATOM     22  C   UNL     1       3.781   5.694 -10.235  0.00  0.00    +0.174 C 
ATOM     23  O   UNL     1       4.536   4.895 -11.307  0.00  0.00    -0.218 OA
BRANCH  22  24
ATOM     24  C   UNL     1       5.096   6.591  -9.842  0.00  0.00    +0.008 A 
ATOM     25  C   UNL     1       5.327   7.566 -10.810  0.00  0.00    +0.000 A 
ATOM     26  C   UNL     1       6.525   7.659 -11.511  0.00  0.00    +0.029 A 
ATOM     27  C   UNL     1       7.548   6.751 -11.264  0.00  0.00    +0.140 A 
ATOM     28  F   UNL     1       8.398   6.327 -12.242  0.00  0.00    -0.204 F 
ATOM     29  C   UNL     1       7.483   6.145 -10.021  0.00  0.00    +0.029 A 
ATOM     30  C   UNL     1       6.216   5.850  -9.537  0.00  0.00    +0.000 A 
ENDBRANCH  22  24
ENDBRANCH  21  22
ENDBRANCH  20  21
ENDBRANCH   5  20
TORSDOF 6
ENDMDL
MODEL 4
REMARK VINA RESULT:      -9.6      3.627      6.385
REMARK  Name = 
REMARK  6 active torsions:
REMARK  status: ('A' for Active; 'I' for Inactive)
REMARK    1  A    between atoms: C_3  and  C_4
REMARK    2  A    between atoms: C_4  and  C_5
REMARK    3  A    between atoms: C_5  and  C_6
REMARK    4  A    between atoms: C_6  and  C_8
REMARK    5  A    between atoms: C_15  and  C_16
REMARK    6  A    between atoms: N_23  and  C_24
REMARK                            x       y       z     vdW  Elec       q    Type
REMARK                         _______ _______ _______ _____ _____    ______ ____
ROOT
ATOM      1  O   UNL     1       2.500   7.975  -8.552  0.00  0.00    -0.274 OA
ATOM      2  C   UNL     1       2.691   7.004  -8.815  0.00  0.00    +0.231 C 
ATOM      3  N   UNL     1       3.684   6.304  -9.489  0.00  0.00    -0.256 N 
ATOM      4  C   UNL     1       2.762   5.171 -10.060  0.00  0.00    +0.111 C 
ATOM      5  C   UNL     1       1.624   5.829  -8.961  0.00  0.00    +0.100 C 
ENDROOT
BRANCH   3   6
ATOM      6  C   UNL     1       5.017   6.451  -9.853  0.00  0.00    +0.054 A 
ATOM      7  C   UNL     1       5.315   7.470 -10.741  0.00  0.00    +0.017 A 
ATOM      8  C   UNL     1       6.609   7.656 -11.149  0.00  0.00    +0.031 A 
ATOM      9  C   UNL     1       7.523   6.684 -10.797  0.00  0.00    +0.140 A 
ATOM     10  F   UNL     1       8.699   6.650 -11.459  0.00  0.00    -0.204 F 
ATOM     11  C   UNL     1       7.276   5.717  -9.843  0.00  0.00    +0.031 A 
ATOM     12  C   UNL     1       5.959   5.535  -9.434  0.00  0.00    +0.017 A 
ENDBRANCH   3   6
BRANCH   4  13
ATOM     13  C   UNL     1       2.316   6.027 -11.358  0.00  0.00    -0.003 A 
ATOM     14  C   UNL     1       3.203   5.873 -12.421  0.00  0.00    +0.001 A 
ATOM     15  C   UNL     1       2.711   5.707 -13.711  0.00  0.00    +0.042 A 
ATOM     16  C   UNL     1       1.335   5.775 -13.892  0.00  0.00    +0.196 A 
ATOM     17  O   UNL     1       0.664   5.000 -14.842  0.00  0.00    -0.287 OA
ATOM     18  C   UNL     1       0.674   6.554 -12.951  0.00  0.00    +0.042 A 
ATOM     19  C   UNL     1       1.052   6.302 -11.631  0.00  0.00    +0.001 A 
ENDBRANCH   4  13
BRANCH   5  20
ATOM     20  C   UNL     1       2.253   4.963  -7.732  0.00  0.00    +0.014 C 
BRANCH  20  21
ATOM     21  C   UNL     1       1.117   4.768  -6.826  0.00  0.00    +0.038 C 
BRANCH  21  22
ATOM     22  C   UNL     1       1.240   5.888  -5.604  0.00  0.00    +0.174 C 
ATOM     23  O   UNL     1       0.702   4.950  -4.514  0.00  0.00    -0.218 OA
BRANCH  22  24
ATOM     24  C   UNL     1      -0.240   6.516  -5.928  0.00  0.00    +0.008 A 
ATOM     25  C   UNL     1      -0.687   7.288  -4.859  0.00  0.00    +0.000 A 
ATOM     26  C   UNL     1      -1.878   7.027  -4.190  0.00  0.00    +0.029 A 
ATOM     27  C   UNL     1      -2.672   5.954  -4.577  0.00  0.00    +0.140 A 
ATOM     28  F   UNL     1      -3.411   5.235  -3.685  0.00  0.00    -0.204 F 
ATOM     29  C   UNL     1      -2.469   5.536  -5.881  0.00  0.00    +0.029 A 
ATOM     30  C   UNL     1      -1.165   5.590  -6.356  0.00  0.00    +0.000 A 
ENDBRANCH  22  24
ENDBRANCH  21  22
ENDBRANCH  20  21
ENDBRANCH   5  20
TORSDOF 6
ENDMDL
MODEL 5
REMARK VINA RESULT:      -9.3      2.991      6.890
REMARK  Name = 
REMARK  6 active torsions:
REMARK  status: ('A' for Active; 'I' for Inactive)
REMARK    1  A    between atoms: C_3  and  C_4
REMARK    2  A    between atoms: C_4  and  C_5
REMARK    3  A    between atoms: C_5  and  C_6
REMARK    4  A    between atoms: C_6  and  C_8
REMARK    5  A    between atoms: C_15  and  C_16
REMARK    6  A    between atoms: N_23  and  C_24
REMARK                            x       y       z     vdW  Elec       q    Type
REMARK                         _______ _______ _______ _____ _____    ______ ____
ROOT
ATOM      1  O   UNL     1       1.603   7.998  -7.354  0.00  0.00    -0.274 OA
ATOM      2  C   UNL     1       1.885   7.016  -7.288  0.00  0.00    +0.231 C 
ATOM      3  N   UNL     1       2.804   6.261  -6.569  0.00  0.00    -0.256 N 
ATOM      4  C   UNL     1       3.043   5.164  -7.663  0.00  0.00    +0.111 C 
ATOM      5  C   UNL     1       1.674   5.889  -8.395  0.00  0.00    +0.100 C 
ENDROOT
BRANCH   3   6
ATOM      6  C   UNL     1       3.551   6.343  -5.401  0.00  0.00    +0.054 A 
ATOM      7  C   UNL     1       3.400   5.314  -4.488  0.00  0.00    +0.017 A 
ATOM      8  C   UNL     1       4.099   5.344  -3.310  0.00  0.00    +0.031 A 
ATOM      9  C   UNL     1       4.775   6.510  -3.013  0.00  0.00    +0.140 A 
ATOM     10  F   UNL     1       5.172   6.705  -1.738  0.00  0.00    -0.204 F 
ATOM     11  C   UNL     1       5.017   7.505  -3.938  0.00  0.00    +0.031 A 
ATOM     12  C   UNL     1       4.304   7.467  -5.132  0.00  0.00    +0.017 A 
ENDBRANCH   3   6
BRANCH   4  13
ATOM     13  C   UNL     1       4.173   6.020  -8.442  0.00  0.00    -0.003 A 
ATOM     14  C   UNL     1       5.461   5.561  -8.172  0.00  0.00    +0.001 A 
ATOM     15  C   UNL     1       6.383   5.449  -9.207  0.00  0.00    +0.042 A 
ATOM     16  C   UNL     1       5.993   5.874 -10.470  0.00  0.00    +0.196 A 
ATOM     17  O   UNL     1       6.430   5.248 -11.641  0.00  0.00    -0.287 OA
ATOM     18  C   UNL     1       5.018   6.864 -10.463  0.00  0.00    +0.042 A 
ATOM     19  C   UNL     1       3.948   6.607  -9.604  0.00  0.00    +0.001 A 
ENDBRANCH   4  13
BRANCH   5  20
ATOM     20  C   UNL     1       0.665   5.013  -7.462  0.00  0.00    +0.014 C 
BRANCH  20  21
ATOM     21  C   UNL     1      -0.617   5.716  -7.582  0.00  0.00    +0.038 C 
BRANCH  21  22
ATOM     22  C   UNL     1      -1.614   5.168  -6.369  0.00  0.00    +0.174 C 
ATOM     23  O   UNL     1      -2.777   6.105  -6.725  0.00  0.00    -0.218 OA
BRANCH  22  24
ATOM     24  C   UNL     1      -0.982   6.214  -5.275  0.00  0.00    +0.008 A 
ATOM     25  C   UNL     1      -0.708   5.559  -4.077  0.00  0.00    +0.000 A 
ATOM     26  C   UNL     1      -1.264   5.948  -2.864  0.00  0.00    +0.029 A 
ATOM     27  C   UNL     1      -2.141   7.026  -2.814  0.00  0.00    +0.140 A 
ATOM     28  F   UNL     1      -3.184   7.078  -1.939  0.00  0.00    -0.204 F 
ATOM     29  C   UNL     1      -2.009   7.914  -3.868  0.00  0.00    +0.029 A 
ATOM     30  C   UNL     1      -1.713   7.369  -5.109  0.00  0.00    +0.000 A 
ENDBRANCH  22  24
ENDBRANCH  21  22
ENDBRANCH  20  21
ENDBRANCH   5  20
TORSDOF 6
ENDMDL
MODEL 6
REMARK VINA RESULT:      -9.2      3.436      5.682
REMARK  Name = 
REMARK  6 active torsions:
REMARK  status: ('A' for Active; 'I' for Inactive)
REMARK    1  A    between atoms: C_3  and  C_4
REMARK    2  A    between atoms: C_4  and  C_5
REMARK    3  A    between atoms: C_5  and  C_6
REMARK    4  A    between atoms: C_6  and  C_8
REMARK    5  A    between atoms: C_15  and  C_16
REMARK    6  A    between atoms: N_23  and  C_24
REMARK                            x       y       z     vdW  Elec       q    Type
REMARK                         _______ _______ _______ _____ _____    ______ ____
ROOT
ATOM      1  O   UNL     1       2.241   8.060  -8.592  0.00  0.00    -0.274 OA
ATOM      2  C   UNL     1       2.409   7.085  -8.856  0.00  0.00    +0.231 C 
ATOM      3  N   UNL     1       3.412   6.351  -9.476  0.00  0.00    -0.256 N 
ATOM      4  C   UNL     1       2.482   5.265 -10.119  0.00  0.00    +0.111 C 
ATOM      5  C   UNL     1       1.305   5.958  -9.085  0.00  0.00    +0.100 C 
ENDROOT
BRANCH   3   6
ATOM      6  C   UNL     1       4.770   6.446  -9.753  0.00  0.00    +0.054 A 
ATOM      7  C   UNL     1       5.155   7.393 -10.686  0.00  0.00    +0.017 A 
ATOM      8  C   UNL     1       6.478   7.525 -11.012  0.00  0.00    +0.031 A 
ATOM      9  C   UNL     1       7.342   6.563 -10.530  0.00  0.00    +0.140 A 
ATOM     10  F   UNL     1       8.559   6.458 -11.102  0.00  0.00    -0.204 F 
ATOM     11  C   UNL     1       7.005   5.671  -9.531  0.00  0.00    +0.031 A 
ATOM     12  C   UNL     1       5.658   5.544  -9.205  0.00  0.00    +0.017 A 
ENDBRANCH   3   6
BRANCH   4  13
ATOM     13  C   UNL     1       2.156   6.154 -11.431  0.00  0.00    -0.003 A 
ATOM     14  C   UNL     1       3.066   5.926 -12.461  0.00  0.00    +0.001 A 
ATOM     15  C   UNL     1       2.609   5.801 -13.769  0.00  0.00    +0.042 A 
ATOM     16  C   UNL     1       1.251   5.980 -14.000  0.00  0.00    +0.196 A 
ATOM     17  O   UNL     1       0.555   5.262 -14.975  0.00  0.00    -0.287 OA
ATOM     18  C   UNL     1       0.621   6.812 -13.082  0.00  0.00    +0.042 A 
ATOM     19  C   UNL     1       0.930   6.531 -11.750  0.00  0.00    +0.001 A 
ENDBRANCH   4  13
BRANCH   5  20
ATOM     20  C   UNL     1       1.819   5.052  -7.831  0.00  0.00    +0.014 C 
BRANCH  20  21
ATOM     21  C   UNL     1       1.085   5.597  -6.684  0.00  0.00    +0.038 C 
BRANCH  21  22
ATOM     22  C   UNL     1       1.713   4.913  -5.306  0.00  0.00    +0.174 C 
ATOM     23  O   UNL     1       1.254   6.048  -4.378  0.00  0.00    -0.218 OA
BRANCH  22  24
ATOM     24  C   UNL     1       3.188   5.585  -5.554  0.00  0.00    +0.008 A 
ATOM     25  C   UNL     1       4.177   4.838  -4.918  0.00  0.00    +0.000 A 
ATOM     26  C   UNL     1       5.029   5.379  -3.962  0.00  0.00    +0.029 A 
ATOM     27  C   UNL     1       4.907   6.715  -3.598  0.00  0.00    +0.140 A 
ATOM     28  F   UNL     1       5.161   7.152  -2.332  0.00  0.00    -0.204 F 
ATOM     29  C   UNL     1       4.290   7.510  -4.549  0.00  0.00    +0.029 A 
ATOM     30  C   UNL     1       3.253   6.930  -5.267  0.00  0.00    +0.000 A 
ENDBRANCH  22  24
ENDBRANCH  21  22
ENDBRANCH  20  21
ENDBRANCH   5  20
TORSDOF 6
ENDMDL
MODEL 7
REMARK VINA RESULT:      -9.1      3.151      5.990
REMARK  Name = 
REMARK  6 active torsions:
REMARK  status: ('A' for Active; 'I' for Inactive)
REMARK    1  A    between atoms: C_3  and  C_4
REMARK    2  A    between atoms: C_4  and  C_5
REMARK    3  A    between atoms: C_5  and  C_6
REMARK    4  A    between atoms: C_6  and  C_8
REMARK    5  A    between atoms: C_15  and  C_16
REMARK    6  A    between atoms: N_23  and  C_24
REMARK                            x       y       z     vdW  Elec       q    Type
REMARK                         _______ _______ _______ _____ _____    ______ ____
ROOT
ATOM      1  O   UNL     1       2.700   3.616  -8.910  0.00  0.00    -0.274 OA
ATOM      2  C   UNL     1       2.671   4.632  -8.794  0.00  0.00    +0.231 C 
ATOM      3  N   UNL     1       2.345   5.742  -9.563  0.00  0.00    -0.256 N 
ATOM      4  C   UNL     1       3.332   6.747  -8.874  0.00  0.00    +0.111 C 
ATOM      5  C   UNL     1       3.477   5.491  -7.718  0.00  0.00    +0.100 C 
ENDROOT
BRANCH   3   6
ATOM      6  C   UNL     1       1.617   6.057 -10.704  0.00  0.00    +0.054 A 
ATOM      7  C   UNL     1       2.064   5.523 -11.900  0.00  0.00    +0.017 A 
ATOM      8  C   UNL     1       1.396   5.809 -13.061  0.00  0.00    +0.031 A 
ATOM      9  C   UNL     1       0.419   6.780 -12.999  0.00  0.00    +0.140 A 
ATOM     10  F   UNL     1      -0.006   7.328 -14.157  0.00  0.00    -0.204 F 
ATOM     11  C   UNL     1      -0.107   7.256 -11.815  0.00  0.00    +0.031 A 
ATOM     12  C   UNL     1       0.577   6.961 -10.639  0.00  0.00    +0.017 A 
ENDBRANCH   3   6
BRANCH   4  13
ATOM     13  C   UNL     1       4.591   6.325  -9.799  0.00  0.00    -0.003 A 
ATOM     14  C   UNL     1       4.809   7.229 -10.836  0.00  0.00    +0.001 A 
ATOM     15  C   UNL     1       6.106   7.624 -11.145  0.00  0.00    +0.042 A 
ATOM     16  C   UNL     1       7.147   7.035 -10.439  0.00  0.00    +0.196 A 
ATOM     17  O   UNL     1       8.314   7.727 -10.105  0.00  0.00    -0.287 OA
ATOM     18  C   UNL     1       6.864   5.761  -9.962  0.00  0.00    +0.042 A 
ATOM     19  C   UNL     1       5.624   5.649  -9.329  0.00  0.00    +0.001 A 
ENDBRANCH   4  13
BRANCH   5  20
ATOM     20  C   UNL     1       2.128   5.990  -6.951  0.00  0.00    +0.014 C 
BRANCH  20  21
ATOM     21  C   UNL     1       2.423   5.748  -5.535  0.00  0.00    +0.038 C 
BRANCH  21  22
ATOM     22  C   UNL     1       1.089   5.028  -4.853  0.00  0.00    +0.174 C 
ATOM     23  O   UNL     1       0.976   3.929  -5.919  0.00  0.00    -0.218 OA
BRANCH  22  24
ATOM     24  C   UNL     1       0.054   6.028  -5.638  0.00  0.00    +0.008 A 
ATOM     25  C   UNL     1      -0.139   7.200  -4.910  0.00  0.00    +0.000 A 
ATOM     26  C   UNL     1      -1.393   7.621  -4.482  0.00  0.00    +0.029 A 
ATOM     27  C   UNL     1      -2.518   6.857  -4.769  0.00  0.00    +0.140 A 
ATOM     28  F   UNL     1      -3.582   6.777  -3.920  0.00  0.00    -0.204 F 
ATOM     29  C   UNL     1      -2.371   6.014  -5.857  0.00  0.00    +0.029 A 
ATOM     30  C   UNL     1      -1.123   5.430  -6.029  0.00  0.00    +0.000 A 
ENDBRANCH  22  24
ENDBRANCH  21  22
ENDBRANCH  20  21
ENDBRANCH   5  20
TORSDOF 6
ENDMDL
MODEL 8
REMARK VINA RESULT:      -9.1      3.072      8.835
REMARK  Name = 
REMARK  6 active torsions:
REMARK  status: ('A' for Active; 'I' for Inactive)
REMARK    1  A    between atoms: C_3  and  C_4
REMARK    2  A    between atoms: C_4  and  C_5
REMARK    3  A    between atoms: C_5  and  C_6
REMARK    4  A    between atoms: C_6  and  C_8
REMARK    5  A    between atoms: C_15  and  C_16
REMARK    6  A    between atoms: N_23  and  C_24
REMARK                            x       y       z     vdW  Elec       q    Type
REMARK                         _______ _______ _______ _____ _____    ______ ____
ROOT
ATOM      1  O   UNL     1       2.268   8.461  -8.047  0.00  0.00    -0.274 OA
ATOM      2  C   UNL     1       2.345   7.456  -8.226  0.00  0.00    +0.231 C 
ATOM      3  N   UNL     1       2.938   6.352  -7.627  0.00  0.00    -0.256 N 
ATOM      4  C   UNL     1       3.196   5.539  -8.943  0.00  0.00    +0.111 C 
ATOM      5  C   UNL     1       2.168   6.724  -9.632  0.00  0.00    +0.100 C 
ENDROOT
BRANCH   3   6
ATOM      6  C   UNL     1       3.425   5.961  -6.386  0.00  0.00    +0.054 A 
ATOM      7  C   UNL     1       3.027   4.720  -5.920  0.00  0.00    +0.017 A 
ATOM      8  C   UNL     1       3.462   4.284  -4.697  0.00  0.00    +0.031 A 
ATOM      9  C   UNL     1       4.124   5.199  -3.904  0.00  0.00    +0.140 A 
ATOM     10  F   UNL     1       4.254   4.924  -2.590  0.00  0.00    -0.204 F 
ATOM     11  C   UNL     1       4.612   6.402  -4.376  0.00  0.00    +0.031 A 
ATOM     12  C   UNL     1       4.166   6.837  -5.620  0.00  0.00    +0.017 A 
ENDBRANCH   3   6
BRANCH   4  13
ATOM     13  C   UNL     1       4.602   6.274  -9.259  0.00  0.00    -0.003 A 
ATOM     14  C   UNL     1       5.687   5.599  -8.703  0.00  0.00    +0.001 A 
ATOM     15  C   UNL     1       6.851   5.436  -9.446  0.00  0.00    +0.042 A 
ATOM     16  C   UNL     1       6.905   6.025 -10.702  0.00  0.00    +0.196 A 
ATOM     17  O   UNL     1       7.585   5.443 -11.776  0.00  0.00    -0.287 OA
ATOM     18  C   UNL     1       6.101   7.150 -10.840  0.00  0.00    +0.042 A 
ATOM     19  C   UNL     1       4.803   6.989 -10.353  0.00  0.00    +0.001 A 
ENDBRANCH   4  13
BRANCH   5  20
ATOM     20  C   UNL     1       0.842   5.904  -9.157  0.00  0.00    +0.014 C 
BRANCH  20  21
ATOM     21  C   UNL     1       0.064   5.756 -10.391  0.00  0.00    +0.038 C 
BRANCH  21  22
ATOM     22  C   UNL     1       0.186   7.177 -11.244  0.00  0.00    +0.174 C 
ATOM     23  O   UNL     1      -1.331   7.395 -11.351  0.00  0.00    -0.218 OA
BRANCH  22  24
ATOM     24  C   UNL     1       0.270   6.394 -12.682  0.00  0.00    +0.008 A 
ATOM     25  C   UNL     1       1.085   5.269 -12.578  0.00  0.00    +0.000 A 
ATOM     26  C   UNL     1       2.211   5.080 -13.371  0.00  0.00    +0.029 A 
ATOM     27  C   UNL     1       2.569   6.041 -14.310  0.00  0.00    +0.140 A 
ATOM     28  F   UNL     1       3.869   6.305 -14.624  0.00  0.00    -0.204 F 
ATOM     29  C   UNL     1       1.526   6.856 -14.716  0.00  0.00    +0.029 A 
ATOM     30  C   UNL     1       0.593   7.203 -13.749  0.00  0.00    +0.000 A 
ENDBRANCH  22  24
ENDBRANCH  21  22
ENDBRANCH  20  21
ENDBRANCH   5  20
TORSDOF 6
ENDMDL
MODEL 9
REMARK VINA RESULT:      -8.6      3.347      5.567
REMARK  Name = 
REMARK  6 active torsions:
REMARK  status: ('A' for Active; 'I' for Inactive)
REMARK    1  A    between atoms: C_3  and  C_4
REMARK    2  A    between atoms: C_4  and  C_5
REMARK    3  A    between atoms: C_5  and  C_6
REMARK    4  A    between atoms: C_6  and  C_8
REMARK    5  A    between atoms: C_15  and  C_16
REMARK    6  A    between atoms: N_23  and  C_24
REMARK                            x       y       z     vdW  Elec       q    Type
REMARK                         _______ _______ _______ _____ _____    ______ ____
ROOT
ATOM      1  O   UNL     1       2.283   7.903  -8.402  0.00  0.00    -0.274 OA
ATOM      2  C   UNL     1       2.620   6.937  -8.393  0.00  0.00    +0.231 C 
ATOM      3  N   UNL     1       3.632   6.200  -8.996  0.00  0.00    -0.256 N 
ATOM      4  C   UNL     1       2.875   4.827  -9.023  0.00  0.00    +0.111 C 
ATOM      5  C   UNL     1       1.784   5.641  -7.984  0.00  0.00    +0.100 C 
ENDROOT
BRANCH   3   6
ATOM      6  C   UNL     1       4.854   6.405  -9.624  0.00  0.00    +0.054 A 
ATOM      7  C   UNL     1       4.915   7.420 -10.562  0.00  0.00    +0.017 A 
ATOM      8  C   UNL     1       6.088   7.661 -11.225  0.00  0.00    +0.031 A 
ATOM      9  C   UNL     1       7.103   6.741 -11.058  0.00  0.00    +0.140 A 
ATOM     10  F   UNL     1       8.120   6.751 -11.945  0.00  0.00    -0.204 F 
ATOM     11  C   UNL     1       7.103   5.781 -10.066  0.00  0.00    +0.031 A 
ATOM     12  C   UNL     1       5.907   5.542  -9.397  0.00  0.00    +0.017 A 
ENDBRANCH   3   6
BRANCH   4  13
ATOM     13  C   UNL     1       2.112   5.142 -10.414  0.00  0.00    -0.003 A 
ATOM     14  C   UNL     1       0.775   4.753 -10.382  0.00  0.00    +0.001 A 
ATOM     15  C   UNL     1      -0.199   5.588 -10.918  0.00  0.00    +0.042 A 
ATOM     16  C   UNL     1       0.220   6.760 -11.534  0.00  0.00    +0.196 A 
ATOM     17  O   UNL     1      -0.523   7.942 -11.483  0.00  0.00    -0.287 OA
ATOM     18  C   UNL     1       1.503   6.697 -12.065  0.00  0.00    +0.042 A 
ATOM     19  C   UNL     1       2.453   6.147 -11.203  0.00  0.00    +0.001 A 
ENDBRANCH   4  13
BRANCH   5  20
ATOM     20  C   UNL     1       2.720   5.320  -6.688  0.00  0.00    +0.014 C 
BRANCH  20  21
ATOM     21  C   UNL     1       1.755   4.984  -5.636  0.00  0.00    +0.038 C 
BRANCH  21  22
ATOM     22  C   UNL     1       1.367   6.387  -4.834  0.00  0.00    +0.174 C 
ATOM     23  O   UNL     1       1.951   5.932  -3.488  0.00  0.00    -0.218 OA
BRANCH  22  24
ATOM     24  C   UNL     1      -0.140   5.851  -4.470  0.00  0.00    +0.008 A 
ATOM     25  C   UNL     1      -0.826   5.500  -5.630  0.00  0.00    +0.000 A 
ATOM     26  C   UNL     1      -2.038   6.079  -5.990  0.00  0.00    +0.029 A 
ATOM     27  C   UNL     1      -2.608   7.058  -5.184  0.00  0.00    +0.140 A 
ATOM     28  F   UNL     1      -3.334   8.092  -5.696  0.00  0.00    -0.204 F 
ATOM     29  C   UNL     1      -2.184   7.028  -3.867  0.00  0.00    +0.029 A 
ATOM     30  C   UNL     1      -0.855   6.692  -3.647  0.00  0.00    +0.000 A 
ENDBRANCH  22  24
ENDBRANCH  21  22
ENDBRANCH  20  21
ENDBRANCH   5  20
TORSDOF 6
ENDMDL
