MODEL 1
REMARK VINA RESULT:      -7.8      0.000      0.000
REMARK  Name = 
REMARK  10 active torsions:
REMARK  status: ('A' for Active; 'I' for Inactive)
REMARK    1  A    between atoms: C_2  and  C_4
REMARK    2  A    between atoms: C_7  and  O_8
REMARK    3  A    between atoms: O_8  and  C_9
REMARK    4  A    between atoms: C_9  and  C_10
REMARK    5  A    between atoms: C_10  and  C_11
REMARK    6  A    between atoms: C_11  and  C_12
REMARK    7  A    between atoms: C_12  and  C_13
REMARK    8  A    between atoms: C_13  and  O_14
REMARK    9  A    between atoms: O_14  and  C_15
REMARK   10  A    between atoms: C_18  and  C_19
REMARK                            x       y       z     vdW  Elec       q    Type
REMARK                         _______ _______ _______ _____ _____    ______ ____
ROOT
ATOM      1  C   UNL     1       2.862   6.047  -7.410  0.00  0.00    +0.008 C 
ENDROOT
BRANCH   1   2
ATOM      2  C   UNL     1       1.460   6.613  -7.345  0.00  0.00    +0.047 C 
BRANCH   2   3
ATOM      3  C   UNL     1       0.478   5.517  -7.675  0.00  0.00    +0.205 C 
BRANCH   3   4
ATOM      4  O   UNL     1      -0.339   5.903  -8.763  0.00  0.00    -0.475 OA
BRANCH   4   8
ATOM      5  C   UNL     1       0.635   5.755 -12.823  0.00  0.00    +0.098 A 
ATOM      6  C   UNL     1       0.567   4.591 -12.071  0.00  0.00    +0.011 A 
ATOM      7  C   UNL     1       0.042   4.602 -10.791  0.00  0.00    +0.037 A 
ATOM      8  C   UNL     1       0.033   5.775 -10.084  0.00  0.00    +0.139 A 
ATOM      9  C   UNL     1       0.292   6.940 -10.785  0.00  0.00    +0.037 A 
ATOM     10  C   UNL     1       0.393   6.933 -12.151  0.00  0.00    +0.011 A 
BRANCH   5  12
ATOM     11  N   UNL     1       2.534   5.279 -14.151  0.00  0.00    +0.205 NA
ATOM     12  C   UNL     1       1.341   5.777 -14.092  0.00  0.00    +0.477 C 
ATOM     13  N   UNL     1       0.700   6.036 -15.341  0.00  0.00    +0.205 NA
ENDBRANCH   5  12
ENDBRANCH   4   8
ENDBRANCH   3   4
ENDBRANCH   2   3
ENDBRANCH   1   2
BRANCH   1  14
ATOM     14  C   UNL     1       2.876   4.587  -7.764  0.00  0.00    +0.047 C 
BRANCH  14  15
ATOM     15  C   UNL     1       3.618   4.380  -9.054  0.00  0.00    +0.205 C 
BRANCH  15  16
ATOM     16  O   UNL     1       3.778   5.559  -9.809  0.00  0.00    -0.475 OA
BRANCH  16  17
ATOM     17  C   UNL     1       5.007   6.227  -9.862  0.00  0.00    +0.139 A 
ATOM     18  C   UNL     1       6.162   5.660  -9.333  0.00  0.00    +0.037 A 
ATOM     19  C   UNL     1       7.383   5.812  -9.979  0.00  0.00    +0.011 A 
ATOM     20  C   UNL     1       7.466   6.404 -11.233  0.00  0.00    +0.098 A 
ATOM     21  C   UNL     1       6.422   7.275 -11.523  0.00  0.00    +0.011 A 
ATOM     22  C   UNL     1       5.235   7.224 -10.803  0.00  0.00    +0.037 A 
BRANCH  20  23
ATOM     23  C   UNL     1       8.297   5.827 -12.299  0.00  0.00    +0.477 C 
ATOM     24  N   UNL     1       7.769   4.881 -13.235  0.00  0.00    +0.205 NA
ATOM     25  N   UNL     1       9.589   5.954 -12.307  0.00  0.00    +0.205 NA
ENDBRANCH  20  23
ENDBRANCH  16  17
ENDBRANCH  15  16
ENDBRANCH  14  15
ENDBRANCH   1  14
TORSDOF 10
ENDMDL
MODEL 2
REMARK VINA RESULT:      -7.7      4.234      5.750
REMARK  Name = 
REMARK  10 active torsions:
REMARK  status: ('A' for Active; 'I' for Inactive)
REMARK    1  A    between atoms: C_2  and  C_4
REMARK    2  A    between atoms: C_7  and  O_8
REMARK    3  A    between atoms: O_8  and  C_9
REMARK    4  A    between atoms: C_9  and  C_10
REMARK    5  A    between atoms: C_10  and  C_11
REMARK    6  A    between atoms: C_11  and  C_12
REMARK    7  A    between atoms: C_12  and  C_13
REMARK    8  A    between atoms: C_13  and  O_14
REMARK    9  A    between atoms: O_14  and  C_15
REMARK   10  A    between atoms: C_18  and  C_19
REMARK                            x       y       z     vdW  Elec       q    Type
REMARK                         _______ _______ _______ _____ _____    ______ ____
ROOT
ATOM      1  C   UNL     1       0.946   6.497 -10.788  0.00  0.00    +0.008 C 
ENDROOT
BRANCH   1   2
ATOM      2  C   UNL     1       0.414   5.214 -10.189  0.00  0.00    +0.047 C 
BRANCH   2   3
ATOM      3  C   UNL     1      -0.486   5.557  -9.028  0.00  0.00    +0.205 C 
BRANCH   3   4
ATOM      4  O   UNL     1       0.075   5.085  -7.818  0.00  0.00    -0.475 OA
BRANCH   4   8
ATOM      5  C   UNL     1      -1.755   6.012  -4.180  0.00  0.00    +0.098 A 
ATOM      6  C   UNL     1      -0.400   5.720  -4.233  0.00  0.00    +0.011 A 
ATOM      7  C   UNL     1       0.259   5.623  -5.447  0.00  0.00    +0.037 A 
ATOM      8  C   UNL     1      -0.463   5.337  -6.575  0.00  0.00    +0.139 A 
ATOM      9  C   UNL     1      -1.841   5.434  -6.489  0.00  0.00    +0.037 A 
ATOM     10  C   UNL     1      -2.442   5.950  -5.372  0.00  0.00    +0.011 A 
BRANCH   5  12
ATOM     11  N   UNL     1      -2.633   4.791  -2.354  0.00  0.00    +0.205 NA
ATOM     12  C   UNL     1      -2.479   5.943  -2.922  0.00  0.00    +0.477 C 
ATOM     13  N   UNL     1      -2.769   7.089  -2.122  0.00  0.00    +0.205 NA
ENDBRANCH   5  12
ENDBRANCH   4   8
ENDBRANCH   3   4
ENDBRANCH   2   3
ENDBRANCH   1   2
BRANCH   1  14
ATOM     14  C   UNL     1       1.742   6.260 -12.041  0.00  0.00    +0.047 C 
BRANCH  14  15
ATOM     15  C   UNL     1       3.172   5.963 -11.690  0.00  0.00    +0.205 C 
BRANCH  15  16
ATOM     16  O   UNL     1       3.598   6.573 -10.494  0.00  0.00    -0.475 OA
BRANCH  16  17
ATOM     17  C   UNL     1       4.950   6.858 -10.265  0.00  0.00    +0.139 A 
ATOM     18  C   UNL     1       5.794   5.927  -9.667  0.00  0.00    +0.037 A 
ATOM     19  C   UNL     1       7.108   5.787 -10.098  0.00  0.00    +0.011 A 
ATOM     20  C   UNL     1       7.574   6.461 -11.220  0.00  0.00    +0.098 A 
ATOM     21  C   UNL     1       6.873   7.623 -11.520  0.00  0.00    +0.011 A 
ATOM     22  C   UNL     1       5.604   7.841 -10.997  0.00  0.00    +0.037 A 
BRANCH  20  23
ATOM     23  C   UNL     1       8.401   5.786 -12.230  0.00  0.00    +0.477 C 
ATOM     24  N   UNL     1       7.862   4.776 -13.089  0.00  0.00    +0.205 NA
ATOM     25  N   UNL     1       9.694   5.890 -12.240  0.00  0.00    +0.205 NA
ENDBRANCH  20  23
ENDBRANCH  16  17
ENDBRANCH  15  16
ENDBRANCH  14  15
ENDBRANCH   1  14
TORSDOF 10
ENDMDL
MODEL 3
REMARK VINA RESULT:      -7.5      1.017      5.757
REMARK  Name = 
REMARK  10 active torsions:
REMARK  status: ('A' for Active; 'I' for Inactive)
REMARK    1  A    between atoms: C_2  and  C_4
REMARK    2  A    between atoms: C_7  and  O_8
REMARK    3  A    between atoms: O_8  and  C_9
REMARK    4  A    between atoms: C_9  and  C_10
REMARK    5  A    between atoms: C_10  and  C_11
REMARK    6  A    between atoms: C_11  and  C_12
REMARK    7  A    between atoms: C_12  and  C_13
REMARK    8  A    between atoms: C_13  and  O_14
REMARK    9  A    between atoms: O_14  and  C_15
REMARK   10  A    between atoms: C_18  and  C_19
REMARK                            x       y       z     vdW  Elec       q    Type
REMARK                         _______ _______ _______ _____ _____    ______ ____
ROOT
ATOM      1  C   UNL     1       2.554   7.168  -7.096  0.00  0.00    +0.008 C 
ENDROOT
BRANCH   1   2
ATOM      2  C   UNL     1       3.606   6.643  -6.143  0.00  0.00    +0.047 C 
BRANCH   2   3
ATOM      3  C   UNL     1       4.437   5.608  -6.860  0.00  0.00    +0.205 C 
BRANCH   3   4
ATOM      4  O   UNL     1       4.034   5.509  -8.212  0.00  0.00    -0.475 OA
BRANCH   4   8
ATOM      5  C   UNL     1       6.851   5.675 -11.292  0.00  0.00    +0.098 A 
ATOM      6  C   UNL     1       5.535   5.328 -11.559  0.00  0.00    +0.011 A 
ATOM      7  C   UNL     1       4.552   5.475 -10.595  0.00  0.00    +0.037 A 
ATOM      8  C   UNL     1       4.912   5.497  -9.275  0.00  0.00    +0.139 A 
ATOM      9  C   UNL     1       6.257   5.649  -8.986  0.00  0.00    +0.037 A 
ATOM     10  C   UNL     1       7.163   5.927  -9.975  0.00  0.00    +0.011 A 
BRANCH   5  12
ATOM     11  N   UNL     1       7.583   4.875 -13.395  0.00  0.00    +0.205 NA
ATOM     12  C   UNL     1       7.906   5.359 -12.239  0.00  0.00    +0.477 C 
ATOM     13  N   UNL     1       9.249   5.822 -12.098  0.00  0.00    +0.205 NA
ENDBRANCH   5  12
ENDBRANCH   4   8
ENDBRANCH   3   4
ENDBRANCH   2   3
ENDBRANCH   1   2
BRANCH   1  14
ATOM     14  C   UNL     1       1.158   6.845  -6.645  0.00  0.00    +0.047 C 
BRANCH  14  15
ATOM     15  C   UNL     1       0.678   5.592  -7.320  0.00  0.00    +0.205 C 
BRANCH  15  16
ATOM     16  O   UNL     1       1.211   5.407  -8.611  0.00  0.00    -0.475 OA
BRANCH  16  17
ATOM     17  C   UNL     1       0.433   5.615  -9.755  0.00  0.00    +0.139 A 
ATOM     18  C   UNL     1       0.353   6.867 -10.358  0.00  0.00    +0.037 A 
ATOM     19  C   UNL     1       0.317   6.983 -11.742  0.00  0.00    +0.011 A 
ATOM     20  C   UNL     1       0.503   5.878 -12.563  0.00  0.00    +0.098 A 
ATOM     21  C   UNL     1       0.181   4.664 -11.967  0.00  0.00    +0.011 A 
ATOM     22  C   UNL     1       0.088   4.555 -10.585  0.00  0.00    +0.037 A 
BRANCH  20  23
ATOM     23  C   UNL     1       1.370   5.941 -13.748  0.00  0.00    +0.477 C 
ATOM     24  N   UNL     1       0.857   5.718 -15.066  0.00  0.00    +0.205 NA
ATOM     25  N   UNL     1       2.663   5.964 -13.652  0.00  0.00    +0.205 NA
ENDBRANCH  20  23
ENDBRANCH  16  17
ENDBRANCH  15  16
ENDBRANCH  14  15
ENDBRANCH   1  14
TORSDOF 10
ENDMDL
MODEL 4
REMARK VINA RESULT:      -7.5      4.030      5.478
REMARK  Name = 
REMARK  10 active torsions:
REMARK  status: ('A' for Active; 'I' for Inactive)
REMARK    1  A    between atoms: C_2  and  C_4
REMARK    2  A    between atoms: C_7  and  O_8
REMARK    3  A    between atoms: O_8  and  C_9
REMARK    4  A    between atoms: C_9  and  C_10
REMARK    5  A    between atoms: C_10  and  C_11
REMARK    6  A    between atoms: C_11  and  C_12
REMARK    7  A    between atoms: C_12  and  C_13
REMARK    8  A    between atoms: C_13  and  O_14
REMARK    9  A    between atoms: O_14  and  C_15
REMARK   10  A    between atoms: C_18  and  C_19
REMARK                            x       y       z     vdW  Elec       q    Type
REMARK                         _______ _______ _______ _____ _____    ______ ____
ROOT
ATOM      1  C   UNL     1       2.699   6.691  -7.393  0.00  0.00    +0.008 C 
ENDROOT
BRANCH   1   2
ATOM      2  C   UNL     1       3.260   5.445  -6.741  0.00  0.00    +0.047 C 
BRANCH   2   3
ATOM      3  C   UNL     1       2.440   4.257  -7.179  0.00  0.00    +0.205 C 
BRANCH   3   4
ATOM      4  O   UNL     1       1.529   3.890  -6.160  0.00  0.00    -0.475 OA
BRANCH   4   8
ATOM      5  C   UNL     1      -1.307   6.330  -4.301  0.00  0.00    +0.098 A 
ATOM      6  C   UNL     1      -1.330   6.143  -5.676  0.00  0.00    +0.011 A 
ATOM      7  C   UNL     1      -0.539   5.178  -6.275  0.00  0.00    +0.037 A 
ATOM      8  C   UNL     1       0.588   4.745  -5.629  0.00  0.00    +0.139 A 
ATOM      9  C   UNL     1       0.726   5.088  -4.295  0.00  0.00    +0.037 A 
ATOM     10  C   UNL     1      -0.295   5.696  -3.614  0.00  0.00    +0.011 A 
BRANCH   5  12
ATOM     11  N   UNL     1      -2.365   7.365  -2.456  0.00  0.00    +0.205 NA
ATOM     12  C   UNL     1      -2.002   7.452  -3.695  0.00  0.00    +0.477 C 
ATOM     13  N   UNL     1      -2.047   8.753  -4.280  0.00  0.00    +0.205 NA
ENDBRANCH   5  12
ENDBRANCH   4   8
ENDBRANCH   3   4
ENDBRANCH   2   3
ENDBRANCH   1   2
BRANCH   1  14
ATOM     14  C   UNL     1       1.850   6.378  -8.593  0.00  0.00    +0.047 C 
BRANCH  14  15
ATOM     15  C   UNL     1       2.539   6.843  -9.844  0.00  0.00    +0.205 C 
BRANCH  15  16
ATOM     16  O   UNL     1       3.643   6.047 -10.208  0.00  0.00    -0.475 OA
BRANCH  16  17
ATOM     17  C   UNL     1       4.952   6.532 -10.108  0.00  0.00    +0.139 A 
ATOM     18  C   UNL     1       5.962   5.773  -9.525  0.00  0.00    +0.037 A 
ATOM     19  C   UNL     1       7.248   5.784 -10.051  0.00  0.00    +0.011 A 
ATOM     20  C   UNL     1       7.531   6.431 -11.248  0.00  0.00    +0.098 A 
ATOM     21  C   UNL     1       6.651   7.460 -11.562  0.00  0.00    +0.011 A 
ATOM     22  C   UNL     1       5.405   7.539 -10.952  0.00  0.00    +0.037 A 
BRANCH  20  23
ATOM     23  C   UNL     1       8.372   5.804 -12.277  0.00  0.00    +0.477 C 
ATOM     24  N   UNL     1       7.841   4.845 -13.198  0.00  0.00    +0.205 NA
ATOM     25  N   UNL     1       9.666   5.899 -12.258  0.00  0.00    +0.205 NA
ENDBRANCH  20  23
ENDBRANCH  16  17
ENDBRANCH  15  16
ENDBRANCH  14  15
ENDBRANCH   1  14
TORSDOF 10
ENDMDL
MODEL 5
REMARK VINA RESULT:      -7.4      6.068      9.530
REMARK  Name = 
REMARK  10 active torsions:
REMARK  status: ('A' for Active; 'I' for Inactive)
REMARK    1  A    between atoms: C_2  and  C_4
REMARK    2  A    between atoms: C_7  and  O_8
REMARK    3  A    between atoms: O_8  and  C_9
REMARK    4  A    between atoms: C_9  and  C_10
REMARK    5  A    between atoms: C_10  and  C_11
REMARK    6  A    between atoms: C_11  and  C_12
REMARK    7  A    between atoms: C_12  and  C_13
REMARK    8  A    between atoms: C_13  and  O_14
REMARK    9  A    between atoms: O_14  and  C_15
REMARK   10  A    between atoms: C_18  and  C_19
REMARK                            x       y       z     vdW  Elec       q    Type
REMARK                         _______ _______ _______ _____ _____    ______ ____
ROOT
ATOM      1  C   UNL     1       2.353   6.732  -8.902  0.00  0.00    +0.008 C 
ENDROOT
BRANCH   1   2
ATOM      2  C   UNL     1       3.838   6.438  -8.930  0.00  0.00    +0.047 C 
BRANCH   2   3
ATOM      3  C   UNL     1       4.237   5.830  -7.609  0.00  0.00    +0.205 C 
BRANCH   3   4
ATOM      4  O   UNL     1       3.654   6.553  -6.542  0.00  0.00    -0.475 OA
BRANCH   4   8
ATOM      5  C   UNL     1       4.071   5.651  -2.484  0.00  0.00    +0.098 A 
ATOM      6  C   UNL     1       3.982   4.637  -3.427  0.00  0.00    +0.011 A 
ATOM      7  C   UNL     1       4.060   4.916  -4.780  0.00  0.00    +0.037 A 
ATOM      8  C   UNL     1       3.744   6.173  -5.220  0.00  0.00    +0.139 A 
ATOM      9  C   UNL     1       3.635   7.171  -4.266  0.00  0.00    +0.037 A 
ATOM     10  C   UNL     1       3.986   6.940  -2.962  0.00  0.00    +0.011 A 
BRANCH   5  12
ATOM     11  N   UNL     1       3.293   4.246  -0.748  0.00  0.00    +0.205 NA
ATOM     12  C   UNL     1       3.816   5.381  -1.080  0.00  0.00    +0.477 C 
ATOM     13  N   UNL     1       4.377   6.156  -0.020  0.00  0.00    +0.205 NA
ENDBRANCH   5  12
ENDBRANCH   4   8
ENDBRANCH   3   4
ENDBRANCH   2   3
ENDBRANCH   1   2
BRANCH   1  14
ATOM     14  C   UNL     1       1.554   5.725  -9.679  0.00  0.00    +0.047 C 
BRANCH  14  15
ATOM     15  C   UNL     1       0.351   5.302  -8.884  0.00  0.00    +0.205 C 
BRANCH  15  16
ATOM     16  O   UNL     1       0.551   5.349  -7.490  0.00  0.00    -0.475 OA
BRANCH  16  17
ATOM     17  C   UNL     1      -0.333   6.039  -6.652  0.00  0.00    +0.139 A 
ATOM     18  C   UNL     1      -1.637   5.596  -6.454  0.00  0.00    +0.037 A 
ATOM     19  C   UNL     1      -2.230   5.686  -5.201  0.00  0.00    +0.011 A 
ATOM     20  C   UNL     1      -1.503   6.081  -4.085  0.00  0.00    +0.098 A 
ATOM     21  C   UNL     1      -0.392   6.865  -4.377  0.00  0.00    +0.011 A 
ATOM     22  C   UNL     1       0.143   6.887  -5.659  0.00  0.00    +0.037 A 
BRANCH  20  23
ATOM     23  C   UNL     1      -1.623   5.374  -2.803  0.00  0.00    +0.477 C 
ATOM     24  N   UNL     1      -0.470   4.963  -2.061  0.00  0.00    +0.205 NA
ATOM     25  N   UNL     1      -2.751   4.881  -2.394  0.00  0.00    +0.205 NA
ENDBRANCH  20  23
ENDBRANCH  16  17
ENDBRANCH  15  16
ENDBRANCH  14  15
ENDBRANCH   1  14
TORSDOF 10
ENDMDL
MODEL 6
REMARK VINA RESULT:      -7.4      5.026      8.806
REMARK  Name = 
REMARK  10 active torsions:
REMARK  status: ('A' for Active; 'I' for Inactive)
REMARK    1  A    between atoms: C_2  and  C_4
REMARK    2  A    between atoms: C_7  and  O_8
REMARK    3  A    between atoms: O_8  and  C_9
REMARK    4  A    between atoms: C_9  and  C_10
REMARK    5  A    between atoms: C_10  and  C_11
REMARK    6  A    between atoms: C_11  and  C_12
REMARK    7  A    between atoms: C_12  and  C_13
REMARK    8  A    between atoms: C_13  and  O_14
REMARK    9  A    between atoms: O_14  and  C_15
REMARK   10  A    between atoms: C_18  and  C_19
REMARK                            x       y       z     vdW  Elec       q    Type
REMARK                         _______ _______ _______ _____ _____    ______ ____
ROOT
ATOM      1  C   UNL     1       1.289   6.638  -7.384  0.00  0.00    +0.008 C 
ENDROOT
BRANCH   1   2
ATOM      2  C   UNL     1       2.430   6.761  -6.398  0.00  0.00    +0.047 C 
BRANCH   2   3
ATOM      3  C   UNL     1       3.708   6.342  -7.080  0.00  0.00    +0.205 C 
BRANCH   3   4
ATOM      4  O   UNL     1       3.592   6.508  -8.480  0.00  0.00    -0.475 OA
BRANCH   4   8
ATOM      5  C   UNL     1       6.946   6.006 -10.920  0.00  0.00    +0.098 A 
ATOM      6  C   UNL     1       5.814   6.650 -11.400  0.00  0.00    +0.011 A 
ATOM      7  C   UNL     1       4.786   7.011 -10.546  0.00  0.00    +0.037 A 
ATOM      8  C   UNL     1       4.640   6.342  -9.361  0.00  0.00    +0.139 A 
ATOM      9  C   UNL     1       5.687   5.534  -8.953  0.00  0.00    +0.037 A 
ATOM     10  C   UNL     1       6.879   5.532  -9.628  0.00  0.00    +0.011 A 
BRANCH   5  12
ATOM     11  N   UNL     1       7.574   4.600 -12.715  0.00  0.00    +0.205 NA
ATOM     12  C   UNL     1       7.940   5.476 -11.836  0.00  0.00    +0.477 C 
ATOM     13  N   UNL     1       9.223   6.071 -12.030  0.00  0.00    +0.205 NA
ENDBRANCH   5  12
ENDBRANCH   4   8
ENDBRANCH   3   4
ENDBRANCH   2   3
ENDBRANCH   1   2
BRANCH   1  14
ATOM     14  C   UNL     1       0.550   5.336  -7.248  0.00  0.00    +0.047 C 
BRANCH  14  15
ATOM     15  C   UNL     1      -0.206   5.309  -5.950  0.00  0.00    +0.205 C 
BRANCH  15  16
ATOM     16  O   UNL     1      -1.585   5.555  -6.095  0.00  0.00    -0.475 OA
BRANCH  16  17
ATOM     17  C   UNL     1      -2.332   6.136  -5.064  0.00  0.00    +0.139 A 
ATOM     18  C   UNL     1      -2.869   5.365  -4.037  0.00  0.00    +0.037 A 
ATOM     19  C   UNL     1      -2.887   5.842  -2.732  0.00  0.00    +0.011 A 
ATOM     20  C   UNL     1      -2.247   7.026  -2.388  0.00  0.00    +0.098 A 
ATOM     21  C   UNL     1      -2.093   7.918  -3.443  0.00  0.00    +0.011 A 
ATOM     22  C   UNL     1      -2.197   7.485  -4.760  0.00  0.00    +0.037 A 
BRANCH  20  23
ATOM     23  C   UNL     1      -1.423   7.127  -1.176  0.00  0.00    +0.477 C 
ATOM     24  N   UNL     1      -1.496   8.266  -0.311  0.00  0.00    +0.205 NA
ATOM     25  N   UNL     1      -0.432   6.322  -0.950  0.00  0.00    +0.205 NA
ENDBRANCH  20  23
ENDBRANCH  16  17
ENDBRANCH  15  16
ENDBRANCH  14  15
ENDBRANCH   1  14
TORSDOF 10
ENDMDL
MODEL 7
REMARK VINA RESULT:      -7.3      7.033     10.536
REMARK  Name = 
REMARK  10 active torsions:
REMARK  status: ('A' for Active; 'I' for Inactive)
REMARK    1  A    between atoms: C_2  and  C_4
REMARK    2  A    between atoms: C_7  and  O_8
REMARK    3  A    between atoms: O_8  and  C_9
REMARK    4  A    between atoms: C_9  and  C_10
REMARK    5  A    between atoms: C_10  and  C_11
REMARK    6  A    between atoms: C_11  and  C_12
REMARK    7  A    between atoms: C_12  and  C_13
REMARK    8  A    between atoms: C_13  and  O_14
REMARK    9  A    between atoms: O_14  and  C_15
REMARK   10  A    between atoms: C_18  and  C_19
REMARK                            x       y       z     vdW  Elec       q    Type
REMARK                         _______ _______ _______ _____ _____    ______ ____
ROOT
ATOM      1  C   UNL     1       1.529   6.744  -6.060  0.00  0.00    +0.008 C 
ENDROOT
BRANCH   1   2
ATOM      2  C   UNL     1       2.742   7.226  -6.826  0.00  0.00    +0.047 C 
BRANCH   2   3
ATOM      3  C   UNL     1       3.709   6.078  -6.976  0.00  0.00    +0.205 C 
BRANCH   3   4
ATOM      4  O   UNL     1       4.722   6.160  -5.993  0.00  0.00    -0.475 OA
BRANCH   4   8
ATOM      5  C   UNL     1       4.215   6.238  -1.847  0.00  0.00    +0.098 A 
ATOM      6  C   UNL     1       3.794   5.144  -2.588  0.00  0.00    +0.011 A 
ATOM      7  C   UNL     1       4.145   5.011  -3.921  0.00  0.00    +0.037 A 
ATOM      8  C   UNL     1       4.478   6.129  -4.636  0.00  0.00    +0.139 A 
ATOM      9  C   UNL     1       4.716   7.292  -3.924  0.00  0.00    +0.037 A 
ATOM     10  C   UNL     1       4.771   7.280  -2.555  0.00  0.00    +0.011 A 
BRANCH   5  12
ATOM     11  N   UNL     1       2.434   6.351  -0.294  0.00  0.00    +0.205 NA
ATOM     12  C   UNL     1       3.705   6.465  -0.506  0.00  0.00    +0.477 C 
ATOM     13  N   UNL     1       4.540   6.509   0.652  0.00  0.00    +0.205 NA
ENDBRANCH   5  12
ENDBRANCH   4   8
ENDBRANCH   3   4
ENDBRANCH   2   3
ENDBRANCH   1   2
BRANCH   1  14
ATOM     14  C   UNL     1       1.042   5.406  -6.539  0.00  0.00    +0.047 C 
BRANCH  14  15
ATOM     15  C   UNL     1      -0.182   5.000  -5.769  0.00  0.00    +0.205 C 
BRANCH  15  16
ATOM     16  O   UNL     1      -1.339   5.720  -6.127  0.00  0.00    -0.475 OA
BRANCH  16  17
ATOM     17  C   UNL     1      -2.164   6.299  -5.155  0.00  0.00    +0.139 A 
ATOM     18  C   UNL     1      -2.823   5.522  -4.209  0.00  0.00    +0.037 A 
ATOM     19  C   UNL     1      -2.953   5.964  -2.898  0.00  0.00    +0.011 A 
ATOM     20  C   UNL     1      -2.312   7.116  -2.459  0.00  0.00    +0.098 A 
ATOM     21  C   UNL     1      -2.027   8.030  -3.468  0.00  0.00    +0.011 A 
ATOM     22  C   UNL     1      -2.016   7.635  -4.800  0.00  0.00    +0.037 A 
BRANCH  20  23
ATOM     23  C   UNL     1      -1.607   7.157  -1.171  0.00  0.00    +0.477 C 
ATOM     24  N   UNL     1      -1.162   5.962  -0.520  0.00  0.00    +0.205 NA
ATOM     25  N   UNL     1      -1.561   8.233  -0.447  0.00  0.00    +0.205 NA
ENDBRANCH  20  23
ENDBRANCH  16  17
ENDBRANCH  15  16
ENDBRANCH  14  15
ENDBRANCH   1  14
TORSDOF 10
ENDMDL
MODEL 8
REMARK VINA RESULT:      -7.3      6.052      8.095
REMARK  Name = 
REMARK  10 active torsions:
REMARK  status: ('A' for Active; 'I' for Inactive)
REMARK    1  A    between atoms: C_2  and  C_4
REMARK    2  A    between atoms: C_7  and  O_8
REMARK    3  A    between atoms: O_8  and  C_9
REMARK    4  A    between atoms: C_9  and  C_10
REMARK    5  A    between atoms: C_10  and  C_11
REMARK    6  A    between atoms: C_11  and  C_12
REMARK    7  A    between atoms: C_12  and  C_13
REMARK    8  A    between atoms: C_13  and  O_14
REMARK    9  A    between atoms: O_14  and  C_15
REMARK   10  A    between atoms: C_18  and  C_19
REMARK                            x       y       z     vdW  Elec       q    Type
REMARK                         _______ _______ _______ _____ _____    ______ ____
ROOT
ATOM      1  C   UNL     1       2.359   5.939  -9.289  0.00  0.00    +0.008 C 
ENDROOT
BRANCH   1   2
ATOM      2  C   UNL     1       0.995   6.514  -9.605  0.00  0.00    +0.047 C 
BRANCH   2   3
ATOM      3  C   UNL     1      -0.061   5.582  -9.067  0.00  0.00    +0.205 C 
BRANCH   3   4
ATOM      4  O   UNL     1       0.362   5.019  -7.840  0.00  0.00    -0.475 OA
BRANCH   4   8
ATOM      5  C   UNL     1      -1.646   5.986  -4.308  0.00  0.00    +0.098 A 
ATOM      6  C   UNL     1      -0.300   5.652  -4.285  0.00  0.00    +0.011 A 
ATOM      7  C   UNL     1       0.424   5.539  -5.459  0.00  0.00    +0.037 A 
ATOM      8  C   UNL     1      -0.239   5.281  -6.628  0.00  0.00    +0.139 A 
ATOM      9  C   UNL     1      -1.616   5.422  -6.622  0.00  0.00    +0.037 A 
ATOM     10  C   UNL     1      -2.265   5.951  -5.538  0.00  0.00    +0.011 A 
BRANCH   5  12
ATOM     11  N   UNL     1      -2.851   4.783  -2.665  0.00  0.00    +0.205 NA
ATOM     12  C   UNL     1      -2.443   5.934  -3.094  0.00  0.00    +0.477 C 
ATOM     13  N   UNL     1      -2.554   7.027  -2.183  0.00  0.00    +0.205 NA
ENDBRANCH   5  12
ENDBRANCH   4   8
ENDBRANCH   3   4
ENDBRANCH   2   3
ENDBRANCH   1   2
BRANCH   1  14
ATOM     14  C   UNL     1       3.282   6.954  -8.677  0.00  0.00    +0.047 C 
BRANCH  14  15
ATOM     15  C   UNL     1       3.113   6.967  -7.184  0.00  0.00    +0.205 C 
BRANCH  15  16
ATOM     16  O   UNL     1       3.928   6.032  -6.516  0.00  0.00    -0.475 OA
BRANCH  16  17
ATOM     17  C   UNL     1       4.304   6.220  -5.181  0.00  0.00    +0.139 A 
ATOM     18  C   UNL     1       3.877   7.329  -4.457  0.00  0.00    +0.037 A 
ATOM     19  C   UNL     1       3.531   7.207  -3.117  0.00  0.00    +0.011 A 
ATOM     20  C   UNL     1       3.464   5.964  -2.500  0.00  0.00    +0.098 A 
ATOM     21  C   UNL     1       4.251   4.987  -3.098  0.00  0.00    +0.011 A 
ATOM     22  C   UNL     1       4.714   5.147  -4.399  0.00  0.00    +0.037 A 
BRANCH  20  23
ATOM     23  C   UNL     1       2.347   5.608  -1.615  0.00  0.00    +0.477 C 
ATOM     24  N   UNL     1       1.315   6.548  -1.293  0.00  0.00    +0.205 NA
ATOM     25  N   UNL     1       2.355   4.527  -0.898  0.00  0.00    +0.205 NA
ENDBRANCH  20  23
ENDBRANCH  16  17
ENDBRANCH  15  16
ENDBRANCH  14  15
ENDBRANCH   1  14
TORSDOF 10
ENDMDL
MODEL 9
REMARK VINA RESULT:      -7.1      3.624      5.561
REMARK  Name = 
REMARK  10 active torsions:
REMARK  status: ('A' for Active; 'I' for Inactive)
REMARK    1  A    between atoms: C_2  and  C_4
REMARK    2  A    between atoms: C_7  and  O_8
REMARK    3  A    between atoms: O_8  and  C_9
REMARK    4  A    between atoms: C_9  and  C_10
REMARK    5  A    between atoms: C_10  and  C_11
REMARK    6  A    between atoms: C_11  and  C_12
REMARK    7  A    between atoms: C_12  and  C_13
REMARK    8  A    between atoms: C_13  and  O_14
REMARK    9  A    between atoms: O_14  and  C_15
REMARK   10  A    between atoms: C_18  and  C_19
REMARK                            x       y       z     vdW  Elec       q    Type
REMARK                         _______ _______ _______ _____ _____    ______ ____
ROOT
ATOM      1  C   UNL     1       0.760   6.214 -10.711  0.00  0.00    +0.008 C 
ENDROOT
BRANCH   1   2
ATOM      2  C   UNL     1       0.344   4.930 -10.025  0.00  0.00    +0.047 C 
BRANCH   2   3
ATOM      3  C   UNL     1       0.533   5.092  -8.538  0.00  0.00    +0.205 C 
BRANCH   3   4
ATOM      4  O   UNL     1       1.901   5.294  -8.238  0.00  0.00    -0.475 OA
BRANCH   4   8
ATOM      5  C   UNL     1       3.598   6.096  -4.506  0.00  0.00    +0.098 A 
ATOM      6  C   UNL     1       2.690   5.059  -4.659  0.00  0.00    +0.011 A 
ATOM      7  C   UNL     1       2.286   4.648  -5.918  0.00  0.00    +0.037 A 
ATOM      8  C   UNL     1       2.381   5.523  -6.966  0.00  0.00    +0.139 A 
ATOM      9  C   UNL     1       3.130   6.670  -6.770  0.00  0.00    +0.037 A 
ATOM     10  C   UNL     1       3.873   6.841  -5.632  0.00  0.00    +0.011 A 
BRANCH   5  12
ATOM     11  N   UNL     1       3.716   7.906  -2.986  0.00  0.00    +0.205 NA
ATOM     12  C   UNL     1       3.886   6.639  -3.190  0.00  0.00    +0.477 C 
ATOM     13  N   UNL     1       4.055   5.827  -2.028  0.00  0.00    +0.205 NA
ENDBRANCH   5  12
ENDBRANCH   4   8
ENDBRANCH   3   4
ENDBRANCH   2   3
ENDBRANCH   1   2
BRANCH   1  14
ATOM     14  C   UNL     1       1.643   5.968 -11.902  0.00  0.00    +0.047 C 
BRANCH  14  15
ATOM     15  C   UNL     1       3.055   5.720 -11.451  0.00  0.00    +0.205 C 
BRANCH  15  16
ATOM     16  O   UNL     1       3.481   6.589 -10.427  0.00  0.00    -0.475 OA
BRANCH  16  17
ATOM     17  C   UNL     1       4.840   6.833 -10.200  0.00  0.00    +0.139 A 
ATOM     18  C   UNL     1       5.665   5.864  -9.638  0.00  0.00    +0.037 A 
ATOM     19  C   UNL     1       6.972   5.704 -10.083  0.00  0.00    +0.011 A 
ATOM     20  C   UNL     1       7.447   6.399 -11.188  0.00  0.00    +0.098 A 
ATOM     21  C   UNL     1       6.773   7.587 -11.447  0.00  0.00    +0.011 A 
ATOM     22  C   UNL     1       5.514   7.821 -10.908  0.00  0.00    +0.037 A 
BRANCH  20  23
ATOM     23  C   UNL     1       8.250   5.734 -12.224  0.00  0.00    +0.477 C 
ATOM     24  N   UNL     1       7.685   4.746 -13.093  0.00  0.00    +0.205 NA
ATOM     25  N   UNL     1       9.543   5.825 -12.255  0.00  0.00    +0.205 NA
ENDBRANCH  20  23
ENDBRANCH  16  17
ENDBRANCH  15  16
ENDBRANCH  14  15
ENDBRANCH   1  14
TORSDOF 10
ENDMDL
