MODEL 1
REMARK VINA RESULT:      -6.9      0.000      0.000
REMARK  Name = 
REMARK  3 active torsions:
REMARK  status: ('A' for Active; 'I' for Inactive)
REMARK    1  A    between atoms: N_4  and  N_5
REMARK    2  A    between atoms: C_6  and  C_7
REMARK    3  A    between atoms: C_10  and  N_11
REMARK                            x       y       z     vdW  Elec       q    Type
REMARK                         _______ _______ _______ _____ _____    ______ ____
ROOT
ATOM      1  N   UNL     1       3.318   5.716  -8.978  0.00  0.00    -0.169 NA
ATOM      2  C   UNL     1       3.674   6.126 -10.134  0.00  0.00    +0.155 C 
ENDROOT
BRANCH   1   8
ATOM      3  O   UNL     1       1.097   4.608  -5.528  0.00  0.00    -0.271 OA
ATOM      4  C   UNL     1       1.015   5.426  -6.493  0.00  0.00    +0.272 C 
ATOM      5  N   UNL     1       1.067   6.859  -6.438  0.00  0.00    -0.125 NA
ATOM      6  C   UNL     1       1.821   7.254  -7.591  0.00  0.00    +0.349 C 
ATOM      7  O   UNL     1       2.313   8.375  -7.873  0.00  0.00    -0.249 OA
ATOM      8  N   UNL     1       2.103   6.084  -8.368  0.00  0.00    -0.154 N 
ATOM      9  C   UNL     1       1.077   5.126  -7.958  0.00  0.00    +0.208 C 
ENDBRANCH   1   8
BRANCH   2  10
ATOM     10  C   UNL     1       5.042   6.467 -10.509  0.00  0.00    +0.172 A 
ATOM     11  O   UNL     1       5.985   5.583 -10.709  0.00  0.00    -0.397 OA
ATOM     12  C   UNL     1       6.950   6.062 -11.439  0.00  0.00    +0.447 A 
ATOM     13  C   UNL     1       6.690   7.404 -11.626  0.00  0.00    +0.121 A 
ATOM     14  C   UNL     1       5.558   7.688 -10.909  0.00  0.00    +0.049 A 
BRANCH  12  15
ATOM     15  N   UNL     1       8.020   5.390 -12.102  0.00  0.00    +0.119 N 
ATOM     16  O   UNL     1       7.686   4.632 -13.199  0.00  0.00    -0.573 OA
ATOM     17  O   UNL     1       9.175   5.867 -12.084  0.00  0.00    +0.045 OA
ENDBRANCH  12  15
ENDBRANCH   2  10
TORSDOF 3
ENDMDL
MODEL 2
REMARK VINA RESULT:      -6.7      0.811      1.278
REMARK  Name = 
REMARK  3 active torsions:
REMARK  status: ('A' for Active; 'I' for Inactive)
REMARK    1  A    between atoms: N_4  and  N_5
REMARK    2  A    between atoms: C_6  and  C_7
REMARK    3  A    between atoms: C_10  and  N_11
REMARK                            x       y       z     vdW  Elec       q    Type
REMARK                         _______ _______ _______ _____ _____    ______ ____
ROOT
ATOM      1  N   UNL     1       2.857   5.845  -9.563  0.00  0.00    -0.169 NA
ATOM      2  C   UNL     1       3.950   6.498  -9.668  0.00  0.00    +0.155 C 
ENDROOT
BRANCH   1   8
ATOM      3  O   UNL     1       1.429   4.381  -5.838  0.00  0.00    -0.271 OA
ATOM      4  C   UNL     1       1.181   5.321  -6.652  0.00  0.00    +0.272 C 
ATOM      5  N   UNL     1       1.341   6.731  -6.443  0.00  0.00    -0.125 NA
ATOM      6  C   UNL     1       1.831   7.244  -7.688  0.00  0.00    +0.349 C 
ATOM      7  O   UNL     1       2.318   8.373  -7.946  0.00  0.00    -0.249 OA
ATOM      8  N   UNL     1       1.845   6.176  -8.642  0.00  0.00    -0.154 N 
ATOM      9  C   UNL     1       0.880   5.211  -8.114  0.00  0.00    +0.208 C 
ENDBRANCH   1   8
BRANCH   2  10
ATOM     10  C   UNL     1       5.253   5.899  -9.938  0.00  0.00    +0.172 A 
ATOM     11  O   UNL     1       5.691   5.616 -11.138  0.00  0.00    -0.397 OA
ATOM     12  C   UNL     1       6.988   5.517 -11.167  0.00  0.00    +0.447 A 
ATOM     13  C   UNL     1       7.433   5.610  -9.864  0.00  0.00    +0.121 A 
ATOM     14  C   UNL     1       6.317   5.701  -9.074  0.00  0.00    +0.049 A 
BRANCH  12  15
ATOM     15  N   UNL     1       7.882   5.483 -12.280  0.00  0.00    +0.119 N 
ATOM     16  O   UNL     1       9.199   5.777 -12.020  0.00  0.00    -0.573 OA
ATOM     17  O   UNL     1       7.659   4.723 -13.246  0.00  0.00    +0.045 OA
ENDBRANCH  12  15
ENDBRANCH   2  10
TORSDOF 3
ENDMDL
MODEL 3
REMARK VINA RESULT:      -6.7      1.725      1.967
REMARK  Name = 
REMARK  3 active torsions:
REMARK  status: ('A' for Active; 'I' for Inactive)
REMARK    1  A    between atoms: N_4  and  N_5
REMARK    2  A    between atoms: C_6  and  C_7
REMARK    3  A    between atoms: C_10  and  N_11
REMARK                            x       y       z     vdW  Elec       q    Type
REMARK                         _______ _______ _______ _____ _____    ______ ____
ROOT
ATOM      1  N   UNL     1       3.031   5.426 -10.607  0.00  0.00    -0.169 NA
ATOM      2  C   UNL     1       3.668   6.515 -10.403  0.00  0.00    +0.155 C 
ENDROOT
BRANCH   1   8
ATOM      3  O   UNL     1       1.104   6.709  -7.043  0.00  0.00    -0.271 OA
ATOM      4  C   UNL     1       1.044   5.747  -7.867  0.00  0.00    +0.272 C 
ATOM      5  N   UNL     1      -0.033   5.414  -8.755  0.00  0.00    -0.125 NA
ATOM      6  C   UNL     1       0.597   4.986  -9.968  0.00  0.00    +0.349 C 
ATOM      7  O   UNL     1       0.089   4.793 -11.101  0.00  0.00    -0.249 OA
ATOM      8  N   UNL     1       2.013   4.956  -9.756  0.00  0.00    -0.154 N 
ATOM      9  C   UNL     1       2.155   4.844  -8.305  0.00  0.00    +0.208 C 
ENDBRANCH   1   8
BRANCH   2  10
ATOM     10  C   UNL     1       5.089   6.708 -10.670  0.00  0.00    +0.172 A 
ATOM     11  O   UNL     1       5.936   5.728 -10.850  0.00  0.00    -0.397 OA
ATOM     12  C   UNL     1       6.999   6.121 -11.491  0.00  0.00    +0.447 A 
ATOM     13  C   UNL     1       6.909   7.491 -11.628  0.00  0.00    +0.121 A 
ATOM     14  C   UNL     1       5.768   7.876 -10.974  0.00  0.00    +0.049 A 
BRANCH  12  15
ATOM     15  N   UNL     1       8.030   5.355 -12.114  0.00  0.00    +0.119 N 
ATOM     16  O   UNL     1       7.669   4.622 -13.220  0.00  0.00    -0.573 OA
ATOM     17  O   UNL     1       9.220   5.734 -12.059  0.00  0.00    +0.045 OA
ENDBRANCH  12  15
ENDBRANCH   2  10
TORSDOF 3
ENDMDL
MODEL 4
REMARK VINA RESULT:      -6.6      1.738      1.943
REMARK  Name = 
REMARK  3 active torsions:
REMARK  status: ('A' for Active; 'I' for Inactive)
REMARK    1  A    between atoms: N_4  and  N_5
REMARK    2  A    between atoms: C_6  and  C_7
REMARK    3  A    between atoms: C_10  and  N_11
REMARK                            x       y       z     vdW  Elec       q    Type
REMARK                         _______ _______ _______ _____ _____    ______ ____
ROOT
ATOM      1  N   UNL     1       3.266   6.620  -8.901  0.00  0.00    -0.169 NA
ATOM      2  C   UNL     1       3.940   5.941  -9.748  0.00  0.00    +0.155 C 
ENDROOT
BRANCH   1   8
ATOM      3  O   UNL     1       0.068   4.436 -10.651  0.00  0.00    -0.271 OA
ATOM      4  C   UNL     1       0.236   5.411  -9.859  0.00  0.00    +0.272 C 
ATOM      5  N   UNL     1      -0.101   5.482  -8.467  0.00  0.00    -0.125 NA
ATOM      6  C   UNL     1       0.972   6.209  -7.855  0.00  0.00    +0.349 C 
ATOM      7  O   UNL     1       1.242   6.351  -6.637  0.00  0.00    -0.249 OA
ATOM      8  N   UNL     1       1.858   6.657  -8.887  0.00  0.00    -0.154 N 
ATOM      9  C   UNL     1       1.033   6.656 -10.094  0.00  0.00    +0.208 C 
ENDBRANCH   1   8
BRANCH   2  10
ATOM     10  C   UNL     1       5.199   6.373 -10.345  0.00  0.00    +0.172 A 
ATOM     11  O   UNL     1       6.214   5.576 -10.562  0.00  0.00    -0.397 OA
ATOM     12  C   UNL     1       7.017   6.052 -11.469  0.00  0.00    +0.447 A 
ATOM     13  C   UNL     1       6.571   7.321 -11.781  0.00  0.00    +0.121 A 
ATOM     14  C   UNL     1       5.507   7.577 -10.956  0.00  0.00    +0.049 A 
BRANCH  12  15
ATOM     15  N   UNL     1       8.074   5.415 -12.185  0.00  0.00    +0.119 N 
ATOM     16  O   UNL     1       7.717   4.700 -13.304  0.00  0.00    -0.573 OA
ATOM     17  O   UNL     1       9.225   5.901 -12.178  0.00  0.00    +0.045 OA
ENDBRANCH  12  15
ENDBRANCH   2  10
TORSDOF 3
ENDMDL
MODEL 5
REMARK VINA RESULT:      -6.6      2.886      8.533
REMARK  Name = 
REMARK  3 active torsions:
REMARK  status: ('A' for Active; 'I' for Inactive)
REMARK    1  A    between atoms: N_4  and  N_5
REMARK    2  A    between atoms: C_6  and  C_7
REMARK    3  A    between atoms: C_10  and  N_11
REMARK                            x       y       z     vdW  Elec       q    Type
REMARK                         _______ _______ _______ _____ _____    ______ ____
ROOT
ATOM      1  N   UNL     1       1.798   5.271  -6.892  0.00  0.00    -0.169 NA
ATOM      2  C   UNL     1       1.259   5.583  -5.776  0.00  0.00    +0.155 C 
ENDROOT
BRANCH   1   8
ATOM      3  O   UNL     1       4.309   4.941 -10.304  0.00  0.00    -0.271 OA
ATOM      4  C   UNL     1       4.135   5.720  -9.319  0.00  0.00    +0.272 C 
ATOM      5  N   UNL     1       3.680   7.080  -9.342  0.00  0.00    -0.125 NA
ATOM      6  C   UNL     1       2.823   7.210  -8.201  0.00  0.00    +0.349 C 
ATOM      7  O   UNL     1       2.027   8.137  -7.907  0.00  0.00    -0.249 OA
ATOM      8  N   UNL     1       2.869   5.986  -7.459  0.00  0.00    -0.154 N 
ATOM      9  C   UNL     1       4.133   5.370  -7.863  0.00  0.00    +0.208 C 
ENDBRANCH   1   8
BRANCH   2  10
ATOM     10  C   UNL     1      -0.167   5.483  -5.486  0.00  0.00    +0.172 A 
ATOM     11  O   UNL     1      -0.656   5.308  -4.285  0.00  0.00    -0.397 OA
ATOM     12  C   UNL     1      -1.900   5.685  -4.210  0.00  0.00    +0.447 A 
ATOM     13  C   UNL     1      -2.304   6.010  -5.489  0.00  0.00    +0.121 A 
ATOM     14  C   UNL     1      -1.246   5.737  -6.316  0.00  0.00    +0.049 A 
BRANCH  12  15
ATOM     15  N   UNL     1      -2.723   5.911  -3.067  0.00  0.00    +0.119 N 
ATOM     16  O   UNL     1      -2.783   4.896  -2.141  0.00  0.00    -0.573 OA
ATOM     17  O   UNL     1      -2.904   7.070  -2.637  0.00  0.00    +0.045 OA
ENDBRANCH  12  15
ENDBRANCH   2  10
TORSDOF 3
ENDMDL
MODEL 6
REMARK VINA RESULT:      -6.4      3.778      8.406
REMARK  Name = 
REMARK  3 active torsions:
REMARK  status: ('A' for Active; 'I' for Inactive)
REMARK    1  A    between atoms: N_4  and  N_5
REMARK    2  A    between atoms: C_6  and  C_7
REMARK    3  A    between atoms: C_10  and  N_11
REMARK                            x       y       z     vdW  Elec       q    Type
REMARK                         _______ _______ _______ _____ _____    ______ ____
ROOT
ATOM      1  N   UNL     1       1.401   6.710  -6.726  0.00  0.00    -0.169 NA
ATOM      2  C   UNL     1       0.729   5.624  -6.789  0.00  0.00    +0.155 C 
ENDROOT
BRANCH   1   8
ATOM      3  O   UNL     1       4.469   4.721  -4.561  0.00  0.00    -0.271 OA
ATOM      4  C   UNL     1       4.357   5.608  -5.461  0.00  0.00    +0.272 C 
ATOM      5  N   UNL     1       4.780   5.532  -6.829  0.00  0.00    -0.125 NA
ATOM      6  C   UNL     1       3.752   6.191  -7.579  0.00  0.00    +0.349 C 
ATOM      7  O   UNL     1       3.559   6.204  -8.820  0.00  0.00    -0.249 OA
ATOM      8  N   UNL     1       2.806   6.745  -6.657  0.00  0.00    -0.154 N 
ATOM      9  C   UNL     1       3.555   6.871  -5.408  0.00  0.00    +0.208 C 
ENDBRANCH   1   8
BRANCH   2  10
ATOM     10  C   UNL     1      -0.553   5.402  -6.129  0.00  0.00    +0.172 A 
ATOM     11  O   UNL     1      -0.710   5.376  -4.831  0.00  0.00    -0.397 OA
ATOM     12  C   UNL     1      -1.944   5.606  -4.489  0.00  0.00    +0.447 A 
ATOM     13  C   UNL     1      -2.686   5.656  -5.652  0.00  0.00    +0.121 A 
ATOM     14  C   UNL     1      -1.823   5.377  -6.679  0.00  0.00    +0.049 A 
BRANCH  12  15
ATOM     15  N   UNL     1      -2.500   5.922  -3.213  0.00  0.00    +0.119 N 
ATOM     16  O   UNL     1      -2.614   4.885  -2.317  0.00  0.00    -0.573 OA
ATOM     17  O   UNL     1      -2.361   7.065  -2.728  0.00  0.00    +0.045 OA
ENDBRANCH  12  15
ENDBRANCH   2  10
TORSDOF 3
ENDMDL
MODEL 7
REMARK VINA RESULT:      -6.4      3.086      8.335
REMARK  Name = 
REMARK  3 active torsions:
REMARK  status: ('A' for Active; 'I' for Inactive)
REMARK    1  A    between atoms: N_4  and  N_5
REMARK    2  A    between atoms: C_6  and  C_7
REMARK    3  A    between atoms: C_10  and  N_11
REMARK                            x       y       z     vdW  Elec       q    Type
REMARK                         _______ _______ _______ _____ _____    ______ ____
ROOT
ATOM      1  N   UNL     1       1.828   5.622  -6.935  0.00  0.00    -0.169 NA
ATOM      2  C   UNL     1       0.658   5.269  -7.306  0.00  0.00    +0.155 C 
ENDROOT
BRANCH   1   8
ATOM      3  O   UNL     1       3.926   5.234 -10.610  0.00  0.00    -0.271 OA
ATOM      4  C   UNL     1       4.047   4.875  -9.400  0.00  0.00    +0.272 C 
ATOM      5  N   UNL     1       5.050   5.280  -8.458  0.00  0.00    -0.125 NA
ATOM      6  C   UNL     1       4.360   5.425  -7.211  0.00  0.00    +0.349 C 
ATOM      7  O   UNL     1       4.754   5.957  -6.143  0.00  0.00    -0.249 OA
ATOM      8  N   UNL     1       3.005   4.999  -7.392  0.00  0.00    -0.154 N 
ATOM      9  C   UNL     1       3.058   4.124  -8.563  0.00  0.00    +0.208 C 
ENDBRANCH   1   8
BRANCH   2  10
ATOM     10  C   UNL     1      -0.517   5.247  -6.441  0.00  0.00    +0.172 A 
ATOM     11  O   UNL     1      -0.465   5.074  -5.145  0.00  0.00    -0.397 OA
ATOM     12  C   UNL     1      -1.534   5.523  -4.555  0.00  0.00    +0.447 A 
ATOM     13  C   UNL     1      -2.417   5.901  -5.546  0.00  0.00    +0.121 A 
ATOM     14  C   UNL     1      -1.826   5.584  -6.740  0.00  0.00    +0.049 A 
BRANCH  12  15
ATOM     15  N   UNL     1      -1.783   5.772  -3.172  0.00  0.00    +0.119 N 
ATOM     16  O   UNL     1      -1.892   7.089  -2.793  0.00  0.00    -0.573 OA
ATOM     17  O   UNL     1      -2.410   4.940  -2.482  0.00  0.00    +0.045 OA
ENDBRANCH  12  15
ENDBRANCH   2  10
TORSDOF 3
ENDMDL
MODEL 8
REMARK VINA RESULT:      -6.4      2.701      3.688
REMARK  Name = 
REMARK  3 active torsions:
REMARK  status: ('A' for Active; 'I' for Inactive)
REMARK    1  A    between atoms: N_4  and  N_5
REMARK    2  A    between atoms: C_6  and  C_7
REMARK    3  A    between atoms: C_10  and  N_11
REMARK                            x       y       z     vdW  Elec       q    Type
REMARK                         _______ _______ _______ _____ _____    ______ ____
ROOT
ATOM      1  N   UNL     1       2.928   6.524 -10.732  0.00  0.00    -0.169 NA
ATOM      2  C   UNL     1       3.632   5.620 -10.166  0.00  0.00    +0.155 C 
ENDROOT
BRANCH   1   8
ATOM      3  O   UNL     1       1.098   4.246 -13.817  0.00  0.00    -0.271 OA
ATOM      4  C   UNL     1       0.758   5.030 -12.881  0.00  0.00    +0.272 C 
ATOM      5  N   UNL     1      -0.007   4.721 -11.707  0.00  0.00    -0.125 NA
ATOM      6  C   UNL     1       0.601   5.474 -10.651  0.00  0.00    +0.349 C 
ATOM      7  O   UNL     1       0.429   5.383  -9.410  0.00  0.00    -0.249 OA
ATOM      8  N   UNL     1       1.626   6.299 -11.217  0.00  0.00    -0.154 N 
ATOM      9  C   UNL     1       1.251   6.421 -12.625  0.00  0.00    +0.208 C 
ENDBRANCH   1   8
BRANCH   2  10
ATOM     10  C   UNL     1       5.073   5.467 -10.329  0.00  0.00    +0.172 A 
ATOM     11  O   UNL     1       5.650   5.142 -11.458  0.00  0.00    -0.397 OA
ATOM     12  C   UNL     1       6.903   5.491 -11.478  0.00  0.00    +0.447 A 
ATOM     13  C   UNL     1       7.215   5.962 -10.219  0.00  0.00    +0.121 A 
ATOM     14  C   UNL     1       6.090   5.804  -9.452  0.00  0.00    +0.049 A 
BRANCH  12  15
ATOM     15  N   UNL     1       7.817   5.567 -12.572  0.00  0.00    +0.119 N 
ATOM     16  O   UNL     1       9.120   5.882 -12.264  0.00  0.00    -0.573 OA
ATOM     17  O   UNL     1       7.638   4.874 -13.595  0.00  0.00    +0.045 OA
ENDBRANCH  12  15
ENDBRANCH   2  10
TORSDOF 3
ENDMDL
MODEL 9
REMARK VINA RESULT:      -6.4      2.801      6.664
REMARK  Name = 
REMARK  3 active torsions:
REMARK  status: ('A' for Active; 'I' for Inactive)
REMARK    1  A    between atoms: N_4  and  N_5
REMARK    2  A    between atoms: C_6  and  C_7
REMARK    3  A    between atoms: C_10  and  N_11
REMARK                            x       y       z     vdW  Elec       q    Type
REMARK                         _______ _______ _______ _____ _____    ______ ____
ROOT
ATOM      1  N   UNL     1       4.253   5.357 -10.517  0.00  0.00    -0.169 NA
ATOM      2  C   UNL     1       4.821   5.411  -9.374  0.00  0.00    +0.155 C 
ENDROOT
BRANCH   1   8
ATOM      3  O   UNL     1       7.922   4.591 -12.520  0.00  0.00    -0.271 OA
ATOM      4  C   UNL     1       6.860   5.261 -12.697  0.00  0.00    +0.272 C 
ATOM      5  N   UNL     1       5.857   5.071 -13.705  0.00  0.00    -0.125 NA
ATOM      6  C   UNL     1       4.609   5.317 -13.046  0.00  0.00    +0.349 C 
ATOM      7  O   UNL     1       3.441   5.077 -13.443  0.00  0.00    -0.249 OA
ATOM      8  N   UNL     1       4.882   5.757 -11.711  0.00  0.00    -0.154 N 
ATOM      9  C   UNL     1       6.249   6.271 -11.776  0.00  0.00    +0.208 C 
ENDBRANCH   1   8
BRANCH   2  10
ATOM     10  C   UNL     1       4.150   5.770  -8.129  0.00  0.00    +0.172 A 
ATOM     11  O   UNL     1       4.661   5.572  -6.941  0.00  0.00    -0.397 OA
ATOM     12  C   UNL     1       4.116   6.342  -6.046  0.00  0.00    +0.447 A 
ATOM     13  C   UNL     1       3.074   7.006  -6.661  0.00  0.00    +0.121 A 
ATOM     14  C   UNL     1       3.005   6.526  -7.943  0.00  0.00    +0.049 A 
BRANCH  12  15
ATOM     15  N   UNL     1       4.534   6.641  -4.714  0.00  0.00    +0.119 N 
ATOM     16  O   UNL     1       5.030   5.593  -3.975  0.00  0.00    -0.573 OA
ATOM     17  O   UNL     1       4.961   7.779  -4.426  0.00  0.00    +0.045 OA
ENDBRANCH  12  15
ENDBRANCH   2  10
TORSDOF 3
ENDMDL
