MODEL 1
REMARK VINA RESULT:      -7.2      0.000      0.000
REMARK  Name = 
REMARK  3 active torsions:
REMARK  status: ('A' for Active; 'I' for Inactive)
REMARK    1  A    between atoms: N_8  and  C_9
REMARK    2  A    between atoms: C_12  and  C_13
REMARK    3  A    between atoms: N_17  and  C_18
REMARK                            x       y       z     vdW  Elec       q    Type
REMARK                         _______ _______ _______ _____ _____    ______ ____
ROOT
ATOM      1  N   UNL     1       1.621   6.479 -12.386  0.00  0.00    -0.086 NA
ATOM      2  C   UNL     1       2.213   6.174 -11.689  0.00  0.00    +0.259 A 
ATOM      3  N   UNL     1       3.545   6.108 -11.932  0.00  0.00    -0.193 NA
ATOM      4  C   UNL     1       4.441   5.672 -11.032  0.00  0.00    +0.171 A 
ATOM      5  N   UNL     1       5.792   5.373 -11.344  0.00  0.00    -0.221 NA
ATOM      6  C   UNL     1       3.996   5.320  -9.772  0.00  0.00    +0.150 A 
ATOM      7  N   UNL     1       4.646   5.102  -8.635  0.00  0.00    -0.219 NA
ATOM      8  C   UNL     1       3.753   5.318  -7.660  0.00  0.00    +0.180 A 
ATOM      9  N   UNL     1       2.513   5.070  -8.168  0.00  0.00    -0.292 N 
ATOM     10  C   UNL     1       2.638   5.392  -9.480  0.00  0.00    +0.169 A 
ATOM     11  N   UNL     1       1.822   5.784 -10.456  0.00  0.00    -0.192 NA
ENDROOT
BRANCH   9  12
ATOM     12  C   UNL     1       1.243   5.566  -7.372  0.00  0.00    +0.111 C 
ATOM     13  C   UNL     1       2.122   6.575  -6.412  0.00  0.00    +0.034 C 
ATOM     14  C   UNL     1       1.043   6.390  -5.202  0.00  0.00    +0.057 C 
ATOM     15  C   UNL     1       1.405   4.833  -5.135  0.00  0.00    -0.026 C 
ATOM     16  C   UNL     1       1.368   4.357  -6.312  0.00  0.00    -0.008 C 
BRANCH  14  17
ATOM     17  C   UNL     1       2.153   6.783  -4.066  0.00  0.00    +0.186 C 
ATOM     18  O   UNL     1       3.273   7.208  -4.757  0.00  0.00    -0.220 OA
ENDBRANCH  14  17
ENDBRANCH   9  12
BRANCH   5  19
ATOM     19  C   UNL     1       6.872   5.869 -10.523  0.00  0.00    +0.094 C 
ATOM     20  C   UNL     1       7.274   7.276 -10.797  0.00  0.00    +0.023 C 
ATOM     21  C   UNL     1       8.129   6.179 -11.383  0.00  0.00    +0.023 C 
ENDBRANCH   5  19
TORSDOF 3
ENDMDL
MODEL 2
REMARK VINA RESULT:      -7.0      3.795      7.234
REMARK  Name = 
REMARK  3 active torsions:
REMARK  status: ('A' for Active; 'I' for Inactive)
REMARK    1  A    between atoms: N_8  and  C_9
REMARK    2  A    between atoms: C_12  and  C_13
REMARK    3  A    between atoms: N_17  and  C_18
REMARK                            x       y       z     vdW  Elec       q    Type
REMARK                         _______ _______ _______ _____ _____    ______ ____
ROOT
ATOM      1  N   UNL     1       3.357   4.983  -4.748  0.00  0.00    -0.086 NA
ATOM      2  C   UNL     1       2.496   5.046  -5.176  0.00  0.00    +0.259 A 
ATOM      3  N   UNL     1       1.401   5.327  -4.427  0.00  0.00    -0.193 NA
ATOM      4  C   UNL     1       0.160   5.408  -4.933  0.00  0.00    +0.171 A 
ATOM      5  N   UNL     1      -1.014   5.461  -4.139  0.00  0.00    -0.221 NA
ATOM      6  C   UNL     1      -0.012   5.250  -6.294  0.00  0.00    +0.150 A 
ATOM      7  N   UNL     1      -1.041   5.515  -7.092  0.00  0.00    -0.219 NA
ATOM      8  C   UNL     1      -0.518   5.680  -8.314  0.00  0.00    +0.180 A 
ATOM      9  N   UNL     1       0.636   4.958  -8.375  0.00  0.00    -0.292 N 
ATOM     10  C   UNL     1       1.091   4.979  -7.097  0.00  0.00    +0.169 A 
ATOM     11  N   UNL     1       2.273   4.864  -6.496  0.00  0.00    -0.192 NA
ENDROOT
BRANCH   9  12
ATOM     12  C   UNL     1       1.648   5.225  -9.558  0.00  0.00    +0.111 C 
ATOM     13  C   UNL     1       0.836   6.561 -10.076  0.00  0.00    +0.034 C 
ATOM     14  C   UNL     1       1.337   6.291 -11.606  0.00  0.00    +0.057 C 
ATOM     15  C   UNL     1       0.531   4.908 -11.611  0.00  0.00    -0.026 C 
ATOM     16  C   UNL     1       0.822   4.266 -10.555  0.00  0.00    -0.008 C 
BRANCH  14  17
ATOM     17  C   UNL     1       0.076   7.125 -12.233  0.00  0.00    +0.186 C 
ATOM     18  O   UNL     1      -0.449   7.867 -11.191  0.00  0.00    -0.220 OA
ENDBRANCH  14  17
ENDBRANCH   9  12
BRANCH   5  19
ATOM     19  C   UNL     1      -2.044   6.439  -4.400  0.00  0.00    +0.094 C 
ATOM     20  C   UNL     1      -1.596   7.857  -4.334  0.00  0.00    +0.023 C 
ATOM     21  C   UNL     1      -2.328   7.301  -3.138  0.00  0.00    +0.023 C 
ENDBRANCH   5  19
TORSDOF 3
ENDMDL
MODEL 3
REMARK VINA RESULT:      -7.0      3.588      7.775
REMARK  Name = 
REMARK  3 active torsions:
REMARK  status: ('A' for Active; 'I' for Inactive)
REMARK    1  A    between atoms: N_8  and  C_9
REMARK    2  A    between atoms: C_12  and  C_13
REMARK    3  A    between atoms: N_17  and  C_18
REMARK                            x       y       z     vdW  Elec       q    Type
REMARK                         _______ _______ _______ _____ _____    ______ ____
ROOT
ATOM      1  N   UNL     1       3.181   5.592  -2.075  0.00  0.00    -0.086 NA
ATOM      2  C   UNL     1       2.486   5.507  -2.737  0.00  0.00    +0.259 A 
ATOM      3  N   UNL     1       1.188   5.554  -2.348  0.00  0.00    -0.193 NA
ATOM      4  C   UNL     1       0.156   5.419  -3.196  0.00  0.00    +0.171 A 
ATOM      5  N   UNL     1      -1.187   5.227  -2.780  0.00  0.00    -0.221 NA
ATOM      6  C   UNL     1       0.420   5.277  -4.544  0.00  0.00    +0.150 A 
ATOM      7  N   UNL     1      -0.362   5.371  -5.613  0.00  0.00    -0.219 NA
ATOM      8  C   UNL     1       0.453   5.671  -6.633  0.00  0.00    +0.180 A 
ATOM      9  N   UNL     1       1.689   5.179  -6.337  0.00  0.00    -0.292 N 
ATOM     10  C   UNL     1       1.740   5.242  -4.983  0.00  0.00    +0.169 A 
ATOM     11  N   UNL     1       2.695   5.330  -4.060  0.00  0.00    -0.192 NA
ENDROOT
BRANCH   9  12
ATOM     12  C   UNL     1       2.933   5.669  -7.178  0.00  0.00    +0.111 C 
ATOM     13  C   UNL     1       2.001   6.521  -8.235  0.00  0.00    +0.034 C 
ATOM     14  C   UNL     1       3.099   6.281  -9.420  0.00  0.00    +0.057 C 
ATOM     15  C   UNL     1       2.832   4.706  -9.330  0.00  0.00    -0.026 C 
ATOM     16  C   UNL     1       2.889   4.354  -8.111  0.00  0.00    -0.008 C 
BRANCH  14  17
ATOM     17  C   UNL     1       1.974   6.490 -10.591  0.00  0.00    +0.186 C 
ATOM     18  O   UNL     1       0.893   7.097  -9.979  0.00  0.00    -0.220 OA
ENDBRANCH  14  17
ENDBRANCH   9  12
BRANCH   5  19
ATOM     19  C   UNL     1      -2.261   6.004  -3.354  0.00  0.00    +0.094 C 
ATOM     20  C   UNL     1      -2.227   7.457  -3.032  0.00  0.00    +0.023 C 
ATOM     21  C   UNL     1      -3.180   6.590  -2.245  0.00  0.00    +0.023 C 
ENDBRANCH   5  19
TORSDOF 3
ENDMDL
MODEL 4
REMARK VINA RESULT:      -6.9      2.269      4.113
REMARK  Name = 
REMARK  3 active torsions:
REMARK  status: ('A' for Active; 'I' for Inactive)
REMARK    1  A    between atoms: N_8  and  C_9
REMARK    2  A    between atoms: C_12  and  C_13
REMARK    3  A    between atoms: N_17  and  C_18
REMARK                            x       y       z     vdW  Elec       q    Type
REMARK                         _______ _______ _______ _____ _____    ______ ____
ROOT
ATOM      1  N   UNL     1       5.213   5.369  -9.536  0.00  0.00    -0.086 NA
ATOM      2  C   UNL     1       4.277   5.545  -9.684  0.00  0.00    +0.259 A 
ATOM      3  N   UNL     1       3.808   5.623 -10.953  0.00  0.00    -0.193 NA
ATOM      4  C   UNL     1       2.526   5.889 -11.252  0.00  0.00    +0.171 A 
ATOM      5  N   UNL     1       2.071   6.209 -12.558  0.00  0.00    -0.221 NA
ATOM      6  C   UNL     1       1.622   6.042 -10.220  0.00  0.00    +0.150 A 
ATOM      7  N   UNL     1       0.294   6.060 -10.203  0.00  0.00    -0.219 NA
ATOM      8  C   UNL     1      -0.057   5.707  -8.960  0.00  0.00    +0.180 A 
ATOM      9  N   UNL     1       0.960   6.058  -8.123  0.00  0.00    -0.292 N 
ATOM     10  C   UNL     1       2.064   5.951  -8.904  0.00  0.00    +0.169 A 
ATOM     11  N   UNL     1       3.363   5.737  -8.708  0.00  0.00    -0.192 NA
ENDROOT
BRANCH   9  12
ATOM     12  C   UNL     1       0.991   5.465  -6.659  0.00  0.00    +0.111 C 
ATOM     13  C   UNL     1      -0.642   5.253  -6.610  0.00  0.00    +0.034 C 
ATOM     14  C   UNL     1      -0.636   5.464  -4.991  0.00  0.00    +0.057 C 
ATOM     15  C   UNL     1      -0.108   6.960  -5.202  0.00  0.00    -0.026 C 
ATOM     16  C   UNL     1       0.877   6.933  -6.004  0.00  0.00    -0.008 C 
BRANCH  14  17
ATOM     17  C   UNL     1      -2.205   5.929  -4.982  0.00  0.00    +0.186 C 
ATOM     18  O   UNL     1      -2.576   6.050  -6.309  0.00  0.00    -0.220 OA
ENDBRANCH  14  17
ENDBRANCH   9  12
BRANCH   5  19
ATOM     19  C   UNL     1       0.906   5.565 -13.117  0.00  0.00    +0.094 C 
ATOM     20  C   UNL     1       1.194   4.469 -14.081  0.00  0.00    +0.023 C 
ATOM     21  C   UNL     1       0.810   5.814 -14.648  0.00  0.00    +0.023 C 
ENDBRANCH   5  19
TORSDOF 3
ENDMDL
MODEL 5
REMARK VINA RESULT:      -6.9      3.722      6.349
REMARK  Name = 
REMARK  3 active torsions:
REMARK  status: ('A' for Active; 'I' for Inactive)
REMARK    1  A    between atoms: N_8  and  C_9
REMARK    2  A    between atoms: C_12  and  C_13
REMARK    3  A    between atoms: N_17  and  C_18
REMARK                            x       y       z     vdW  Elec       q    Type
REMARK                         _______ _______ _______ _____ _____    ______ ____
ROOT
ATOM      1  N   UNL     1      -2.118   5.356  -5.960  0.00  0.00    -0.086 NA
ATOM      2  C   UNL     1      -1.211   5.426  -6.278  0.00  0.00    +0.259 A 
ATOM      3  N   UNL     1      -0.188   5.355  -5.390  0.00  0.00    -0.193 NA
ATOM      4  C   UNL     1       1.103   5.467  -5.739  0.00  0.00    +0.171 A 
ATOM      5  N   UNL     1       2.161   5.635  -4.808  0.00  0.00    -0.221 NA
ATOM      6  C   UNL     1       1.418   5.609  -7.077  0.00  0.00    +0.150 A 
ATOM      7  N   UNL     1       2.569   5.496  -7.730  0.00  0.00    -0.219 NA
ATOM      8  C   UNL     1       2.239   5.209  -8.996  0.00  0.00    +0.180 A 
ATOM      9  N   UNL     1       1.000   5.725  -9.232  0.00  0.00    -0.292 N 
ATOM     10  C   UNL     1       0.397   5.668  -8.018  0.00  0.00    +0.169 A 
ATOM     11  N   UNL     1      -0.855   5.602  -7.569  0.00  0.00    -0.192 NA
ENDROOT
BRANCH   9  12
ATOM     12  C   UNL     1       0.202   5.256 -10.512  0.00  0.00    +0.111 C 
ATOM     13  C   UNL     1       1.541   5.278 -11.470  0.00  0.00    +0.034 C 
ATOM     14  C   UNL     1       0.621   5.618 -12.775  0.00  0.00    +0.057 C 
ATOM     15  C   UNL     1       0.196   7.004 -12.096  0.00  0.00    -0.026 C 
ATOM     16  C   UNL     1      -0.171   6.775 -10.903  0.00  0.00    -0.008 C 
BRANCH  14  17
ATOM     17  C   UNL     1       1.883   6.296 -13.567  0.00  0.00    +0.186 C 
ATOM     18  O   UNL     1       1.712   5.977 -14.902  0.00  0.00    -0.220 OA
ENDBRANCH  14  17
ENDBRANCH   9  12
BRANCH   5  19
ATOM     19  C   UNL     1       3.360   4.834  -4.894  0.00  0.00    +0.094 C 
ATOM     20  C   UNL     1       4.186   4.804  -3.656  0.00  0.00    +0.023 C 
ATOM     21  C   UNL     1       4.632   5.719  -4.770  0.00  0.00    +0.023 C 
ENDBRANCH   5  19
TORSDOF 3
ENDMDL
MODEL 6
REMARK VINA RESULT:      -6.9      2.952      6.607
REMARK  Name = 
REMARK  3 active torsions:
REMARK  status: ('A' for Active; 'I' for Inactive)
REMARK    1  A    between atoms: N_8  and  C_9
REMARK    2  A    between atoms: C_12  and  C_13
REMARK    3  A    between atoms: N_17  and  C_18
REMARK                            x       y       z     vdW  Elec       q    Type
REMARK                         _______ _______ _______ _____ _____    ______ ____
ROOT
ATOM      1  N   UNL     1      -0.644   5.267  -5.443  0.00  0.00    -0.086 NA
ATOM      2  C   UNL     1       0.300   5.444  -5.367  0.00  0.00    +0.259 A 
ATOM      3  N   UNL     1       0.868   5.509  -4.138  0.00  0.00    -0.193 NA
ATOM      4  C   UNL     1       2.168   5.776  -3.938  0.00  0.00    +0.171 A 
ATOM      5  N   UNL     1       2.724   6.081  -2.668  0.00  0.00    -0.221 NA
ATOM      6  C   UNL     1       2.988   5.943  -5.037  0.00  0.00    +0.150 A 
ATOM      7  N   UNL     1       4.310   5.965  -5.158  0.00  0.00    -0.219 NA
ATOM      8  C   UNL     1       4.563   5.628  -6.429  0.00  0.00    +0.180 A 
ATOM      9  N   UNL     1       3.483   5.986  -7.179  0.00  0.00    -0.292 N 
ATOM     10  C   UNL     1       2.444   5.866  -6.314  0.00  0.00    +0.169 A 
ATOM     11  N   UNL     1       1.134   5.651  -6.410  0.00  0.00    -0.192 NA
ENDROOT
BRANCH   9  12
ATOM     12  C   UNL     1       3.338   5.409  -8.642  0.00  0.00    +0.111 C 
ATOM     13  C   UNL     1       4.958   5.163  -8.806  0.00  0.00    +0.034 C 
ATOM     14  C   UNL     1       4.845   5.391 -10.419  0.00  0.00    +0.057 C 
ATOM     15  C   UNL     1       4.366   6.896 -10.158  0.00  0.00    -0.026 C 
ATOM     16  C   UNL     1       3.439   6.882  -9.290  0.00  0.00    -0.008 C 
BRANCH  14  17
ATOM     17  C   UNL     1       6.420   5.823 -10.532  0.00  0.00    +0.186 C 
ATOM     18  O   UNL     1       6.933   5.737  -9.251  0.00  0.00    -0.220 OA
ENDBRANCH  14  17
ENDBRANCH   9  12
BRANCH   5  19
ATOM     19  C   UNL     1       3.932   5.434  -2.211  0.00  0.00    +0.094 C 
ATOM     20  C   UNL     1       3.734   4.416  -1.144  0.00  0.00    +0.023 C 
ATOM     21  C   UNL     1       4.222   5.781  -0.724  0.00  0.00    +0.023 C 
ENDBRANCH   5  19
TORSDOF 3
ENDMDL
MODEL 7
REMARK VINA RESULT:      -6.9      3.661      5.326
REMARK  Name = 
REMARK  3 active torsions:
REMARK  status: ('A' for Active; 'I' for Inactive)
REMARK    1  A    between atoms: N_8  and  C_9
REMARK    2  A    between atoms: C_12  and  C_13
REMARK    3  A    between atoms: N_17  and  C_18
REMARK                            x       y       z     vdW  Elec       q    Type
REMARK                         _______ _______ _______ _____ _____    ______ ____
ROOT
ATOM      1  N   UNL     1      -2.323   5.923  -4.844  0.00  0.00    -0.086 NA
ATOM      2  C   UNL     1      -1.513   5.725  -5.326  0.00  0.00    +0.259 A 
ATOM      3  N   UNL     1      -1.512   5.790  -6.680  0.00  0.00    -0.193 NA
ATOM      4  C   UNL     1      -0.437   5.507  -7.433  0.00  0.00    +0.171 A 
ATOM      5  N   UNL     1      -0.483   5.338  -8.841  0.00  0.00    -0.221 NA
ATOM      6  C   UNL     1       0.748   5.182  -6.802  0.00  0.00    +0.150 A 
ATOM      7  N   UNL     1       1.995   5.102  -7.251  0.00  0.00    -0.219 NA
ATOM      8  C   UNL     1       2.778   5.276  -6.178  0.00  0.00    +0.180 A 
ATOM      9  N   UNL     1       2.080   4.867  -5.082  0.00  0.00    -0.292 N 
ATOM     10  C   UNL     1       0.790   5.123  -5.413  0.00  0.00    +0.169 A 
ATOM     11  N   UNL     1      -0.341   5.368  -4.755  0.00  0.00    -0.192 NA
ENDROOT
BRANCH   9  12
ATOM     12  C   UNL     1       2.601   5.268  -3.645  0.00  0.00    +0.111 C 
ATOM     13  C   UNL     1       3.210   6.706  -4.165  0.00  0.00    +0.034 C 
ATOM     14  C   UNL     1       4.357   6.657  -3.005  0.00  0.00    +0.057 C 
ATOM     15  C   UNL     1       4.959   5.335  -3.675  0.00  0.00    -0.026 C 
ATOM     16  C   UNL     1       4.008   4.520  -3.888  0.00  0.00    -0.008 C 
BRANCH  14  17
ATOM     17  C   UNL     1       5.350   7.642  -3.856  0.00  0.00    +0.186 C 
ATOM     18  O   UNL     1       4.670   7.960  -5.017  0.00  0.00    -0.220 OA
ENDBRANCH  14  17
ENDBRANCH   9  12
BRANCH   5  19
ATOM     19  C   UNL     1       0.474   5.995  -9.700  0.00  0.00    +0.094 C 
ATOM     20  C   UNL     1      -0.105   6.638 -10.911  0.00  0.00    +0.023 C 
ATOM     21  C   UNL     1       0.556   5.293 -11.084  0.00  0.00    +0.023 C 
ENDBRANCH   5  19
TORSDOF 3
ENDMDL
MODEL 8
REMARK VINA RESULT:      -6.8      3.045      7.076
REMARK  Name = 
REMARK  3 active torsions:
REMARK  status: ('A' for Active; 'I' for Inactive)
REMARK    1  A    between atoms: N_8  and  C_9
REMARK    2  A    between atoms: C_12  and  C_13
REMARK    3  A    between atoms: N_17  and  C_18
REMARK                            x       y       z     vdW  Elec       q    Type
REMARK                         _______ _______ _______ _____ _____    ______ ____
ROOT
ATOM      1  N   UNL     1       3.715   7.315  -4.152  0.00  0.00    -0.086 NA
ATOM      2  C   UNL     1       3.124   6.941  -4.815  0.00  0.00    +0.259 A 
ATOM      3  N   UNL     1       1.877   6.555  -4.451  0.00  0.00    -0.193 NA
ATOM      4  C   UNL     1       0.997   6.001  -5.300  0.00  0.00    +0.171 A 
ATOM      5  N   UNL     1      -0.210   5.377  -4.891  0.00  0.00    -0.221 NA
ATOM      6  C   UNL     1       1.354   5.862  -6.627  0.00  0.00    +0.150 A 
ATOM      7  N   UNL     1       0.636   5.594  -7.712  0.00  0.00    -0.219 NA
ATOM      8  C   UNL     1       1.338   6.086  -8.741  0.00  0.00    +0.180 A 
ATOM      9  N   UNL     1       2.654   6.087  -8.386  0.00  0.00    -0.292 N 
ATOM     10  C   UNL     1       2.619   6.264  -7.042  0.00  0.00    +0.169 A 
ATOM     11  N   UNL     1       3.440   6.752  -6.115  0.00  0.00    -0.192 NA
ENDROOT
BRANCH   9  12
ATOM     12  C   UNL     1       3.682   6.922  -9.247  0.00  0.00    +0.111 C 
ATOM     13  C   UNL     1       3.128   6.312 -10.672  0.00  0.00    +0.034 C 
ATOM     14  C   UNL     1       4.606   6.490 -11.341  0.00  0.00    +0.057 C 
ATOM     15  C   UNL     1       5.194   5.439 -10.287  0.00  0.00    -0.026 C 
ATOM     16  C   UNL     1       4.803   5.769  -9.125  0.00  0.00    -0.008 C 
BRANCH  14  17
ATOM     17  C   UNL     1       4.310   5.330 -12.458  0.00  0.00    +0.186 C 
ATOM     18  O   UNL     1       5.547   4.934 -12.934  0.00  0.00    -0.220 OA
ENDBRANCH  14  17
ENDBRANCH   9  12
BRANCH   5  19
ATOM     19  C   UNL     1      -1.462   5.680  -5.545  0.00  0.00    +0.094 C 
ATOM     20  C   UNL     1      -2.110   6.947  -5.108  0.00  0.00    +0.023 C 
ATOM     21  C   UNL     1      -2.641   5.657  -4.532  0.00  0.00    +0.023 C 
ENDBRANCH   5  19
TORSDOF 3
ENDMDL
MODEL 9
REMARK VINA RESULT:      -6.8      4.693      8.864
REMARK  Name = 
REMARK  3 active torsions:
REMARK  status: ('A' for Active; 'I' for Inactive)
REMARK    1  A    between atoms: N_8  and  C_9
REMARK    2  A    between atoms: C_12  and  C_13
REMARK    3  A    between atoms: N_17  and  C_18
REMARK                            x       y       z     vdW  Elec       q    Type
REMARK                         _______ _______ _______ _____ _____    ______ ____
ROOT
ATOM      1  N   UNL     1       4.550   5.972  -0.026  0.00  0.00    -0.086 NA
ATOM      2  C   UNL     1       3.746   5.997  -0.556  0.00  0.00    +0.259 A 
ATOM      3  N   UNL     1       2.582   6.385   0.021  0.00  0.00    -0.193 NA
ATOM      4  C   UNL     1       1.410   6.426  -0.633  0.00  0.00    +0.171 A 
ATOM      5  N   UNL     1       0.154   6.595   0.007  0.00  0.00    -0.221 NA
ATOM      6  C   UNL     1       1.389   6.110  -1.977  0.00  0.00    +0.150 A 
ATOM      7  N   UNL     1       0.467   6.296  -2.915  0.00  0.00    -0.219 NA
ATOM      8  C   UNL     1       1.130   6.304  -4.078  0.00  0.00    +0.180 A 
ATOM      9  N   UNL     1       2.261   5.560  -3.919  0.00  0.00    -0.292 N 
ATOM     10  C   UNL     1       2.567   5.725  -2.608  0.00  0.00    +0.169 A 
ATOM     11  N   UNL     1       3.669   5.663  -1.863  0.00  0.00    -0.192 NA
ENDROOT
BRANCH   9  12
ATOM     12  C   UNL     1       3.410   5.667  -4.998  0.00  0.00    +0.111 C 
ATOM     13  C   UNL     1       2.648   6.869  -5.826  0.00  0.00    +0.034 C 
ATOM     14  C   UNL     1       3.341   6.371  -7.218  0.00  0.00    +0.057 C 
ATOM     15  C   UNL     1       2.564   4.978  -7.090  0.00  0.00    -0.026 C 
ATOM     16  C   UNL     1       2.729   4.528  -5.914  0.00  0.00    -0.008 C 
BRANCH  14  17
ATOM     17  C   UNL     1       2.157   7.045  -8.124  0.00  0.00    +0.186 C 
ATOM     18  O   UNL     1       2.113   8.379  -7.764  0.00  0.00    -0.220 OA
ENDBRANCH  14  17
ENDBRANCH   9  12
BRANCH   5  19
ATOM     19  C   UNL     1      -0.808   7.553  -0.485  0.00  0.00    +0.094 C 
ATOM     20  C   UNL     1      -1.865   7.939   0.488  0.00  0.00    +0.023 C 
ATOM     21  C   UNL     1      -2.227   6.925  -0.570  0.00  0.00    +0.023 C 
ENDBRANCH   5  19
TORSDOF 3
ENDMDL
