MODEL 1
REMARK VINA RESULT:      -7.8      0.000      0.000
REMARK  Name = 
REMARK  5 active torsions:
REMARK  status: ('A' for Active; 'I' for Inactive)
REMARK    1  A    between atoms: C_2  and  C_3
REMARK    2  A    between atoms: C_4  and  C_5
REMARK    3  A    between atoms: C_6  and  C_8
REMARK    4  A    between atoms: C_9  and  C_10
REMARK    5  A    between atoms: C_19  and  C_20
REMARK                            x       y       z     vdW  Elec       q    Type
REMARK                         _______ _______ _______ _____ _____    ______ ____
ROOT
ATOM      1  C   UNL     1       3.820   5.249  -6.745  0.00  0.00    -0.004 C 
ATOM      2  C   UNL     1       2.518   4.978  -6.638  0.00  0.00    -0.022 C 
ATOM      3  C   UNL     1       2.017   3.631  -6.227  0.00  0.00    +0.031 C 
ENDROOT
BRANCH   1   5
ATOM      4  C   UNL     1       5.037   5.250  -8.874  0.00  0.00    -0.004 C 
ATOM      5  C   UNL     1       4.368   5.894  -7.947  0.00  0.00    -0.001 C 
BRANCH   4   7
ATOM      6  C   UNL     1       7.409   5.843  -9.593  0.00  0.00    +0.031 C 
ATOM      7  C   UNL     1       5.947   5.976  -9.768  0.00  0.00    -0.015 C 
ATOM      8  C   UNL     1       5.498   6.920 -10.587  0.00  0.00    +0.082 C 
BRANCH   8   9
ATOM      9  C   UNL     1       6.298   7.379 -11.727  0.00  0.00    +0.388 C 
ATOM     10  O   UNL     1       6.539   8.753 -11.785  0.00  0.00    -0.241 OA
ATOM     11  O   UNL     1       6.197   6.737 -12.813  0.00  0.00    -0.241 OA
ENDBRANCH   8   9
ENDBRANCH   4   7
ENDBRANCH   1   5
BRANCH   2  12
ATOM     12  C   UNL     1       1.655   5.818  -7.482  0.00  0.00    -0.005 C 
ATOM     13  C   UNL     1       0.914   6.674  -6.775  0.00  0.00    -0.005 C 
BRANCH  13  14
ATOM     14  C   UNL     1      -0.012   6.021  -5.835  0.00  0.00    -0.031 C 
ATOM     15  C   UNL     1      -0.154   6.489  -4.420  0.00  0.00    +0.018 C 
ATOM     16  C   UNL     1       1.159   6.735  -3.751  0.00  0.00    +0.004 C 
ATOM     17  C   UNL     1      -0.976   5.431  -3.691  0.00  0.00    +0.004 C 
ATOM     18  C   UNL     1      -1.039   7.722  -4.458  0.00  0.00    +0.004 C 
ATOM     19  C   UNL     1      -2.324   7.375  -5.159  0.00  0.00    +0.005 C 
ATOM     20  C   UNL     1      -2.408   5.901  -5.528  0.00  0.00    +0.022 C 
ATOM     21  C   UNL     1      -1.183   5.621  -6.344  0.00  0.00    -0.048 C 
ATOM     22  C   UNL     1      -1.295   5.255  -7.790  0.00  0.00    +0.026 C 
ENDBRANCH  13  14
ENDBRANCH   2  12
TORSDOF 5
ENDMDL
MODEL 2
REMARK VINA RESULT:      -7.3      4.284      8.398
REMARK  Name = 
REMARK  5 active torsions:
REMARK  status: ('A' for Active; 'I' for Inactive)
REMARK    1  A    between atoms: C_2  and  C_3
REMARK    2  A    between atoms: C_4  and  C_5
REMARK    3  A    between atoms: C_6  and  C_8
REMARK    4  A    between atoms: C_9  and  C_10
REMARK    5  A    between atoms: C_19  and  C_20
REMARK                            x       y       z     vdW  Elec       q    Type
REMARK                         _______ _______ _______ _____ _____    ______ ____
ROOT
ATOM      1  C   UNL     1       0.288   5.422  -8.450  0.00  0.00    -0.004 C 
ATOM      2  C   UNL     1       1.575   5.222  -8.740  0.00  0.00    -0.022 C 
ATOM      3  C   UNL     1       2.071   3.932  -9.310  0.00  0.00    +0.031 C 
ENDROOT
BRANCH   1   5
ATOM      4  C   UNL     1      -0.597   5.209  -6.174  0.00  0.00    -0.004 C 
ATOM      5  C   UNL     1      -0.125   5.955  -7.145  0.00  0.00    -0.001 C 
BRANCH   4   7
ATOM      6  C   UNL     1      -2.409   6.850  -5.455  0.00  0.00    +0.031 C 
ATOM      7  C   UNL     1      -1.420   5.806  -5.115  0.00  0.00    -0.015 C 
ATOM      8  C   UNL     1      -1.148   5.594  -3.833  0.00  0.00    +0.082 C 
BRANCH   8   9
ATOM      9  C   UNL     1      -2.148   5.856  -2.792  0.00  0.00    +0.388 C 
ATOM     10  O   UNL     1      -1.910   6.973  -1.988  0.00  0.00    -0.241 OA
ATOM     11  O   UNL     1      -2.741   4.861  -2.282  0.00  0.00    -0.241 OA
ENDBRANCH   8   9
ENDBRANCH   4   7
ENDBRANCH   1   5
BRANCH   2  12
ATOM     12  C   UNL     1       2.506   6.042  -7.949  0.00  0.00    -0.005 C 
ATOM     13  C   UNL     1       3.319   6.780  -8.708  0.00  0.00    -0.005 C 
BRANCH  13  14
ATOM     14  C   UNL     1       4.186   5.987  -9.595  0.00  0.00    -0.031 C 
ATOM     15  C   UNL     1       4.330   6.313 -11.050  0.00  0.00    +0.018 C 
ATOM     16  C   UNL     1       3.023   6.578 -11.722  0.00  0.00    +0.004 C 
ATOM     17  C   UNL     1       5.073   5.144 -11.687  0.00  0.00    +0.004 C 
ATOM     18  C   UNL     1       5.290   7.487 -11.137  0.00  0.00    +0.004 C 
ATOM     19  C   UNL     1       6.563   7.127 -10.423  0.00  0.00    +0.005 C 
ATOM     20  C   UNL     1       6.565   5.690  -9.920  0.00  0.00    +0.022 C 
ATOM     21  C   UNL     1       5.339   5.564  -9.066  0.00  0.00    -0.048 C 
ATOM     22  C   UNL     1       5.455   5.325  -7.593  0.00  0.00    +0.026 C 
ENDBRANCH  13  14
ENDBRANCH   2  12
TORSDOF 5
ENDMDL
MODEL 3
REMARK VINA RESULT:      -7.3      2.641      4.384
REMARK  Name = 
REMARK  5 active torsions:
REMARK  status: ('A' for Active; 'I' for Inactive)
REMARK    1  A    between atoms: C_2  and  C_3
REMARK    2  A    between atoms: C_4  and  C_5
REMARK    3  A    between atoms: C_6  and  C_8
REMARK    4  A    between atoms: C_9  and  C_10
REMARK    5  A    between atoms: C_19  and  C_20
REMARK                            x       y       z     vdW  Elec       q    Type
REMARK                         _______ _______ _______ _____ _____    ______ ____
ROOT
ATOM      1  C   UNL     1       4.598   5.244  -7.688  0.00  0.00    -0.004 C 
ATOM      2  C   UNL     1       3.483   5.958  -7.520  0.00  0.00    -0.022 C 
ATOM      3  C   UNL     1       2.235   5.362  -6.953  0.00  0.00    +0.031 C 
ENDROOT
BRANCH   1   5
ATOM      4  C   UNL     1       6.564   5.660  -9.091  0.00  0.00    -0.004 C 
ATOM      5  C   UNL     1       5.324   5.253  -8.966  0.00  0.00    -0.001 C 
BRANCH   4   7
ATOM      6  C   UNL     1       7.107   7.539 -10.726  0.00  0.00    +0.031 C 
ATOM      7  C   UNL     1       7.071   6.098 -10.398  0.00  0.00    -0.015 C 
ATOM      8  C   UNL     1       7.291   5.227 -11.376  0.00  0.00    +0.082 C 
BRANCH   8   9
ATOM      9  C   UNL     1       8.131   5.575 -12.526  0.00  0.00    +0.388 C 
ATOM     10  O   UNL     1       7.772   4.985 -13.741  0.00  0.00    -0.241 OA
ATOM     11  O   UNL     1       9.354   5.815 -12.310  0.00  0.00    -0.241 OA
ENDBRANCH   8   9
ENDBRANCH   4   7
ENDBRANCH   1   5
BRANCH   2  12
ATOM     12  C   UNL     1       3.360   7.107  -8.430  0.00  0.00    -0.005 C 
ATOM     13  C   UNL     1       2.139   7.222  -8.957  0.00  0.00    -0.005 C 
BRANCH  13  14
ATOM     14  C   UNL     1       1.731   6.064  -9.768  0.00  0.00    -0.031 C 
ATOM     15  C   UNL     1       0.317   5.569  -9.776  0.00  0.00    +0.018 C 
ATOM     16  C   UNL     1      -0.273   5.465  -8.407  0.00  0.00    +0.004 C 
ATOM     17  C   UNL     1       0.329   4.225 -10.496  0.00  0.00    +0.004 C 
ATOM     18  C   UNL     1      -0.462   6.500 -10.687  0.00  0.00    +0.004 C 
ATOM     19  C   UNL     1       0.217   6.546 -12.028  0.00  0.00    +0.005 C 
ATOM     20  C   UNL     1       1.400   5.593 -12.117  0.00  0.00    +0.022 C 
ATOM     21  C   UNL     1       2.297   5.961 -10.975  0.00  0.00    -0.048 C 
ATOM     22  C   UNL     1       3.657   6.534 -11.225  0.00  0.00    +0.026 C 
ENDBRANCH  13  14
ENDBRANCH   2  12
TORSDOF 5
ENDMDL
MODEL 4
REMARK VINA RESULT:      -7.1      4.462      6.645
REMARK  Name = 
REMARK  5 active torsions:
REMARK  status: ('A' for Active; 'I' for Inactive)
REMARK    1  A    between atoms: C_2  and  C_3
REMARK    2  A    between atoms: C_4  and  C_5
REMARK    3  A    between atoms: C_6  and  C_8
REMARK    4  A    between atoms: C_9  and  C_10
REMARK    5  A    between atoms: C_19  and  C_20
REMARK                            x       y       z     vdW  Elec       q    Type
REMARK                         _______ _______ _______ _____ _____    ______ ____
ROOT
ATOM      1  C   UNL     1       2.663   4.944  -6.539  0.00  0.00    -0.004 C 
ATOM      2  C   UNL     1       2.725   4.882  -7.870  0.00  0.00    -0.022 C 
ATOM      3  C   UNL     1       2.841   3.582  -8.601  0.00  0.00    +0.031 C 
ENDROOT
BRANCH   1   5
ATOM      4  C   UNL     1       4.267   5.471  -4.761  0.00  0.00    -0.004 C 
ATOM      5  C   UNL     1       3.531   5.854  -5.778  0.00  0.00    -0.001 C 
BRANCH   4   7
ATOM      6  C   UNL     1       5.761   7.435  -4.124  0.00  0.00    +0.031 C 
ATOM      7  C   UNL     1       4.719   6.451  -3.766  0.00  0.00    -0.015 C 
ATOM      8  C   UNL     1       4.378   6.338  -2.487  0.00  0.00    +0.082 C 
BRANCH   8   9
ATOM      9  C   UNL     1       4.493   7.474  -1.568  0.00  0.00    +0.388 C 
ATOM     10  O   UNL     1       5.118   7.208  -0.347  0.00  0.00    -0.241 OA
ATOM     11  O   UNL     1       3.582   8.352  -1.601  0.00  0.00    -0.241 OA
ENDBRANCH   8   9
ENDBRANCH   4   7
ENDBRANCH   1   5
BRANCH   2  12
ATOM     12  C   UNL     1       3.262   6.093  -8.507  0.00  0.00    -0.005 C 
ATOM     13  C   UNL     1       2.344   6.760  -9.209  0.00  0.00    -0.005 C 
BRANCH  13  14
ATOM     14  C   UNL     1       1.766   5.985 -10.319  0.00  0.00    -0.031 C 
ATOM     15  C   UNL     1       0.286   5.815 -10.472  0.00  0.00    +0.018 C 
ATOM     16  C   UNL     1      -0.397   5.457  -9.192  0.00  0.00    +0.004 C 
ATOM     17  C   UNL     1       0.077   4.754 -11.546  0.00  0.00    +0.004 C 
ATOM     18  C   UNL     1      -0.238   7.104 -11.081  0.00  0.00    +0.004 C 
ATOM     19  C   UNL     1       0.518   7.383 -12.350  0.00  0.00    +0.005 C 
ATOM     20  C   UNL     1       1.494   6.269 -12.706  0.00  0.00    +0.022 C 
ATOM     21  C   UNL     1       2.374   6.110 -11.503  0.00  0.00    -0.048 C 
ATOM     22  C   UNL     1       3.832   6.436 -11.575  0.00  0.00    +0.026 C 
ENDBRANCH  13  14
ENDBRANCH   2  12
TORSDOF 5
ENDMDL
MODEL 5
REMARK VINA RESULT:      -6.6      4.731      7.547
REMARK  Name = 
REMARK  5 active torsions:
REMARK  status: ('A' for Active; 'I' for Inactive)
REMARK    1  A    between atoms: C_2  and  C_3
REMARK    2  A    between atoms: C_4  and  C_5
REMARK    3  A    between atoms: C_6  and  C_8
REMARK    4  A    between atoms: C_9  and  C_10
REMARK    5  A    between atoms: C_19  and  C_20
REMARK                            x       y       z     vdW  Elec       q    Type
REMARK                         _______ _______ _______ _____ _____    ______ ____
ROOT
ATOM      1  C   UNL     1       0.201   5.197  -7.829  0.00  0.00    -0.004 C 
ATOM      2  C   UNL     1       1.276   5.954  -8.054  0.00  0.00    -0.022 C 
ATOM      3  C   UNL     1       2.548   5.387  -8.598  0.00  0.00    +0.031 C 
ENDROOT
BRANCH   1   5
ATOM      4  C   UNL     1      -1.752   5.667  -6.422  0.00  0.00    -0.004 C 
ATOM      5  C   UNL     1      -0.514   5.251  -6.545  0.00  0.00    -0.001 C 
BRANCH   4   7
ATOM      6  C   UNL     1      -2.571   7.580  -4.951  0.00  0.00    +0.031 C 
ATOM      7  C   UNL     1      -2.245   6.149  -5.126  0.00  0.00    -0.015 C 
ATOM      8  C   UNL     1      -2.197   5.381  -4.045  0.00  0.00    +0.082 C 
BRANCH   8   9
ATOM      9  C   UNL     1      -3.006   5.686  -2.860  0.00  0.00    +0.388 C 
ATOM     10  O   UNL     1      -2.558   5.133  -1.659  0.00  0.00    -0.241 OA
ATOM     11  O   UNL     1      -4.251   5.845  -3.024  0.00  0.00    -0.241 OA
ENDBRANCH   8   9
ENDBRANCH   4   7
ENDBRANCH   1   5
BRANCH   2  12
ATOM     12  C   UNL     1       1.348   7.163  -7.220  0.00  0.00    -0.005 C 
ATOM     13  C   UNL     1       2.546   7.333  -6.657  0.00  0.00    -0.005 C 
BRANCH  13  14
ATOM     14  C   UNL     1       2.939   6.238  -5.755  0.00  0.00    -0.031 C 
ATOM     15  C   UNL     1       4.336   5.697  -5.736  0.00  0.00    +0.018 C 
ATOM     16  C   UNL     1       4.885   5.452  -7.104  0.00  0.00    +0.004 C 
ATOM     17  C   UNL     1       4.300   4.424  -4.898  0.00  0.00    +0.004 C 
ATOM     18  C   UNL     1       5.169   6.679  -4.931  0.00  0.00    +0.004 C 
ATOM     19  C   UNL     1       4.529   6.868  -3.584  0.00  0.00    +0.005 C 
ATOM     20  C   UNL     1       3.318   5.968  -3.381  0.00  0.00    +0.022 C 
ATOM     21  C   UNL     1       2.403   6.263  -4.530  0.00  0.00    -0.048 C 
ATOM     22  C   UNL     1       1.069   6.902  -4.300  0.00  0.00    +0.026 C 
ENDBRANCH  13  14
ENDBRANCH   2  12
TORSDOF 5
ENDMDL
MODEL 6
REMARK VINA RESULT:      -6.5      2.231      3.549
REMARK  Name = 
REMARK  5 active torsions:
REMARK  status: ('A' for Active; 'I' for Inactive)
REMARK    1  A    between atoms: C_2  and  C_3
REMARK    2  A    between atoms: C_4  and  C_5
REMARK    3  A    between atoms: C_6  and  C_8
REMARK    4  A    between atoms: C_9  and  C_10
REMARK    5  A    between atoms: C_19  and  C_20
REMARK                            x       y       z     vdW  Elec       q    Type
REMARK                         _______ _______ _______ _____ _____    ______ ____
ROOT
ATOM      1  C   UNL     1       4.087   4.426  -8.119  0.00  0.00    -0.004 C 
ATOM      2  C   UNL     1       3.112   4.741  -7.264  0.00  0.00    -0.022 C 
ATOM      3  C   UNL     1       1.983   3.807  -6.965  0.00  0.00    +0.031 C 
ENDROOT
BRANCH   1   5
ATOM      4  C   UNL     1       4.290   5.114 -10.463  0.00  0.00    -0.004 C 
ATOM      5  C   UNL     1       4.490   5.350  -9.189  0.00  0.00    -0.001 C 
BRANCH   4   7
ATOM      6  C   UNL     1       5.551   7.183 -11.252  0.00  0.00    +0.031 C 
ATOM      7  C   UNL     1       5.105   5.793 -11.478  0.00  0.00    -0.015 C 
ATOM      8  C   UNL     1       5.268   5.272 -12.688  0.00  0.00    +0.082 C 
BRANCH   8   9
ATOM      9  C   UNL     1       6.353   5.720 -13.567  0.00  0.00    +0.388 C 
ATOM     10  O   UNL     1       5.962   6.456 -14.689  0.00  0.00    -0.241 OA
ATOM     11  O   UNL     1       7.381   4.988 -13.655  0.00  0.00    -0.241 OA
ENDBRANCH   8   9
ENDBRANCH   4   7
ENDBRANCH   1   5
BRANCH   2  12
ATOM     12  C   UNL     1       2.883   6.186  -7.115  0.00  0.00    -0.005 C 
ATOM     13  C   UNL     1       3.549   6.713  -6.087  0.00  0.00    -0.005 C 
BRANCH  13  14
ATOM     14  C   UNL     1       3.175   6.144  -4.782  0.00  0.00    -0.031 C 
ATOM     15  C   UNL     1       4.208   5.711  -3.788  0.00  0.00    +0.018 C 
ATOM     16  C   UNL     1       5.305   4.903  -4.399  0.00  0.00    +0.004 C 
ATOM     17  C   UNL     1       3.470   4.941  -2.698  0.00  0.00    +0.004 C 
ATOM     18  C   UNL     1       4.711   6.973  -3.109  0.00  0.00    +0.004 C 
ATOM     19  C   UNL     1       3.536   7.720  -2.541  0.00  0.00    +0.005 C 
ATOM     20  C   UNL     1       2.225   6.965  -2.714  0.00  0.00    +0.022 C 
ATOM     21  C   UNL     1       2.112   6.692  -4.183  0.00  0.00    -0.048 C 
ATOM     22  C   UNL     1       1.028   7.326  -4.997  0.00  0.00    +0.026 C 
ENDBRANCH  13  14
ENDBRANCH   2  12
TORSDOF 5
ENDMDL
MODEL 7
REMARK VINA RESULT:      -6.5      3.804      4.827
REMARK  Name = 
REMARK  5 active torsions:
REMARK  status: ('A' for Active; 'I' for Inactive)
REMARK    1  A    between atoms: C_2  and  C_3
REMARK    2  A    between atoms: C_4  and  C_5
REMARK    3  A    between atoms: C_6  and  C_8
REMARK    4  A    between atoms: C_9  and  C_10
REMARK    5  A    between atoms: C_19  and  C_20
REMARK                            x       y       z     vdW  Elec       q    Type
REMARK                         _______ _______ _______ _____ _____    ______ ____
ROOT
ATOM      1  C   UNL     1       2.678   5.187 -10.268  0.00  0.00    -0.004 C 
ATOM      2  C   UNL     1       2.337   4.894  -9.012  0.00  0.00    -0.022 C 
ATOM      3  C   UNL     1       2.524   3.527  -8.435  0.00  0.00    +0.031 C 
ENDROOT
BRANCH   1   5
ATOM      4  C   UNL     1       1.402   5.416 -12.349  0.00  0.00    -0.004 C 
ATOM      5  C   UNL     1       1.745   5.877 -11.169  0.00  0.00    -0.001 C 
BRANCH   4   7
ATOM      6  C   UNL     1       0.300   7.627 -12.978  0.00  0.00    +0.031 C 
ATOM      7  C   UNL     1       0.879   6.327 -13.375  0.00  0.00    -0.015 C 
ATOM      8  C   UNL     1       0.712   5.924 -14.629  0.00  0.00    +0.082 C 
BRANCH   8   9
ATOM      9  C   UNL     1       0.559   6.889 -15.723  0.00  0.00    +0.388 C 
ATOM     10  O   UNL     1      -0.569   6.721 -16.529  0.00  0.00    -0.241 OA
ATOM     11  O   UNL     1       1.612   7.355 -16.247  0.00  0.00    -0.241 OA
ENDBRANCH   8   9
ENDBRANCH   4   7
ENDBRANCH   1   5
BRANCH   2  12
ATOM     12  C   UNL     1       1.275   5.748  -8.460  0.00  0.00    -0.005 C 
ATOM     13  C   UNL     1       1.684   6.476  -7.419  0.00  0.00    -0.005 C 
BRANCH  13  14
ATOM     14  C   UNL     1       2.143   5.671  -6.275  0.00  0.00    -0.031 C 
ATOM     15  C   UNL     1       3.498   5.867  -5.668  0.00  0.00    +0.018 C 
ATOM     16  C   UNL     1       4.585   5.968  -6.688  0.00  0.00    +0.004 C 
ATOM     17  C   UNL     1       3.720   4.703  -4.709  0.00  0.00    +0.004 C 
ATOM     18  C   UNL     1       3.401   7.097  -4.783  0.00  0.00    +0.004 C 
ATOM     19  C   UNL     1       2.274   6.904  -3.806  0.00  0.00    +0.005 C 
ATOM     20  C   UNL     1       1.637   5.526  -3.914  0.00  0.00    +0.022 C 
ATOM     21  C   UNL     1       1.222   5.388  -5.347  0.00  0.00    -0.048 C 
ATOM     22  C   UNL     1      -0.225   5.299  -5.718  0.00  0.00    +0.026 C 
ENDBRANCH  13  14
ENDBRANCH   2  12
TORSDOF 5
ENDMDL
MODEL 8
REMARK VINA RESULT:      -6.4      5.804      9.106
REMARK  Name = 
REMARK  5 active torsions:
REMARK  status: ('A' for Active; 'I' for Inactive)
REMARK    1  A    between atoms: C_2  and  C_3
REMARK    2  A    between atoms: C_4  and  C_5
REMARK    3  A    between atoms: C_6  and  C_8
REMARK    4  A    between atoms: C_9  and  C_10
REMARK    5  A    between atoms: C_19  and  C_20
REMARK                            x       y       z     vdW  Elec       q    Type
REMARK                         _______ _______ _______ _____ _____    ______ ____
ROOT
ATOM      1  C   UNL     1       1.736   5.201  -1.192  0.00  0.00    -0.004 C 
ATOM      2  C   UNL     1       2.935   5.366  -1.753  0.00  0.00    -0.022 C 
ATOM      3  C   UNL     1       4.100   4.493  -1.409  0.00  0.00    +0.031 C 
ENDROOT
BRANCH   1   5
ATOM      4  C   UNL     1      -0.152   6.215  -0.001  0.00  0.00    -0.004 C 
ATOM      5  C   UNL     1       1.006   6.334  -0.606  0.00  0.00    -0.001 C 
BRANCH   4   7
ATOM      6  C   UNL     1      -1.876   7.795  -1.014  0.00  0.00    +0.031 C 
ATOM      7  C   UNL     1      -1.040   7.377   0.131  0.00  0.00    -0.015 C 
ATOM      8  C   UNL     1      -0.952   8.194   1.174  0.00  0.00    +0.082 C 
BRANCH   8   9
ATOM      9  C   UNL     1      -2.045   9.111   1.513  0.00  0.00    +0.388 C 
ATOM     10  O   UNL     1      -1.672  10.435   1.758  0.00  0.00    -0.241 OA
ATOM     11  O   UNL     1      -3.038   8.638   2.138  0.00  0.00    -0.241 OA
ENDBRANCH   8   9
ENDBRANCH   4   7
ENDBRANCH   1   5
BRANCH   2  12
ATOM     12  C   UNL     1       3.200   6.734  -2.221  0.00  0.00    -0.005 C 
ATOM     13  C   UNL     1       2.562   7.026  -3.356  0.00  0.00    -0.005 C 
BRANCH  13  14
ATOM     14  C   UNL     1       2.943   6.168  -4.489  0.00  0.00    -0.031 C 
ATOM     15  C   UNL     1       1.920   5.588  -5.417  0.00  0.00    +0.018 C 
ATOM     16  C   UNL     1       0.751   4.994  -4.700  0.00  0.00    +0.004 C 
ATOM     17  C   UNL     1       2.644   4.560  -6.279  0.00  0.00    +0.004 C 
ATOM     18  C   UNL     1       1.525   6.700  -6.373  0.00  0.00    +0.004 C 
ATOM     19  C   UNL     1       2.765   7.238  -7.030  0.00  0.00    +0.005 C 
ATOM     20  C   UNL     1       4.017   6.466  -6.636  0.00  0.00    +0.022 C 
ATOM     21  C   UNL     1       4.060   6.512  -5.139  0.00  0.00    -0.048 C 
ATOM     22  C   UNL     1       5.154   7.245  -4.428  0.00  0.00    +0.026 C 
ENDBRANCH  13  14
ENDBRANCH   2  12
TORSDOF 5
ENDMDL
MODEL 9
REMARK VINA RESULT:      -6.4      2.153      3.689
REMARK  Name = 
REMARK  5 active torsions:
REMARK  status: ('A' for Active; 'I' for Inactive)
REMARK    1  A    between atoms: C_2  and  C_3
REMARK    2  A    between atoms: C_4  and  C_5
REMARK    3  A    between atoms: C_6  and  C_8
REMARK    4  A    between atoms: C_9  and  C_10
REMARK    5  A    between atoms: C_19  and  C_20
REMARK                            x       y       z     vdW  Elec       q    Type
REMARK                         _______ _______ _______ _____ _____    ______ ____
ROOT
ATOM      1  C   UNL     1       2.246   5.065  -9.319  0.00  0.00    -0.004 C 
ATOM      2  C   UNL     1       1.307   5.681  -8.598  0.00  0.00    -0.022 C 
ATOM      3  C   UNL     1      -0.141   5.326  -8.709  0.00  0.00    +0.031 C 
ENDROOT
BRANCH   1   5
ATOM      4  C   UNL     1       3.740   5.436 -11.227  0.00  0.00    -0.004 C 
ATOM      5  C   UNL     1       3.247   5.829 -10.077  0.00  0.00    -0.001 C 
BRANCH   4   7
ATOM      6  C   UNL     1       5.593   7.180 -11.093  0.00  0.00    +0.031 C 
ATOM      7  C   UNL     1       5.033   5.951 -11.693  0.00  0.00    -0.015 C 
ATOM      8  C   UNL     1       5.610   5.469 -12.787  0.00  0.00    +0.082 C 
BRANCH   8   9
ATOM      9  C   UNL     1       7.035   5.689 -13.053  0.00  0.00    +0.388 C 
ATOM     10  O   UNL     1       7.330   6.575 -14.092  0.00  0.00    -0.241 OA
ATOM     11  O   UNL     1       7.829   4.728 -12.836  0.00  0.00    -0.241 OA
ENDBRANCH   8   9
ENDBRANCH   4   7
ENDBRANCH   1   5
BRANCH   2  12
ATOM     12  C   UNL     1       1.663   7.046  -8.182  0.00  0.00    -0.005 C 
ATOM     13  C   UNL     1       2.824   7.101  -7.526  0.00  0.00    -0.005 C 
BRANCH  13  14
ATOM     14  C   UNL     1       2.839   6.320  -6.279  0.00  0.00    -0.031 C 
ATOM     15  C   UNL     1       4.104   5.730  -5.737  0.00  0.00    +0.018 C 
ATOM     16  C   UNL     1       4.921   5.039  -6.780  0.00  0.00    +0.004 C 
ATOM     17  C   UNL     1       3.698   4.784  -4.611  0.00  0.00    +0.004 C 
ATOM     18  C   UNL     1       4.851   6.862  -5.053  0.00  0.00    +0.004 C 
ATOM     19  C   UNL     1       3.944   7.497  -4.037  0.00  0.00    +0.005 C 
ATOM     20  C   UNL     1       2.608   6.778  -3.915  0.00  0.00    +0.022 C 
ATOM     21  C   UNL     1       2.038   6.755  -5.301  0.00  0.00    -0.048 C 
ATOM     22  C   UNL     1       0.789   7.512  -5.626  0.00  0.00    +0.026 C 
ENDBRANCH  13  14
ENDBRANCH   2  12
TORSDOF 5
ENDMDL
