MODEL 1
REMARK VINA RESULT:      -6.7      0.000      0.000
REMARK  Name = 
REMARK  5 active torsions:
REMARK  status: ('A' for Active; 'I' for Inactive)
REMARK    1  A    between atoms: N_2  and  C_4
REMARK    2  A    between atoms: C_4  and  C_5
REMARK    3  A    between atoms: C_5  and  C_6
REMARK    4  A    between atoms: C_6  and  C_7
REMARK    5  A    between atoms: C_6  and  C_14
REMARK                            x       y       z     vdW  Elec       q    Type
REMARK                         _______ _______ _______ _____ _____    ______ ____
ROOT
ATOM      1  C   UNL     1       4.013   4.813  -9.019  0.00  0.00    +0.064 C 
ENDROOT
BRANCH   1   2
ATOM      2  C   UNL     1       5.096   5.716  -9.851  0.00  0.00    -0.017 A 
ATOM      3  C   UNL     1       5.222   5.391 -11.176  0.00  0.00    -0.003 A 
ATOM      4  C   UNL     1       6.366   5.599 -11.909  0.00  0.00    +0.011 A 
ATOM      5  C   UNL     1       7.547   5.607 -11.177  0.00  0.00    +0.058 A 
ATOM      6 CL   UNL     1       9.018   5.884 -12.096  0.00  0.00    -0.082 Cl
ATOM      7  C   UNL     1       7.526   5.526  -9.799  0.00  0.00    +0.011 A 
ATOM      8  C   UNL     1       6.301   5.648  -9.151  0.00  0.00    -0.003 A 
ENDBRANCH   1   2
BRANCH   1   9
ATOM      9  C   UNL     1       2.739   5.285  -9.938  0.00  0.00    +0.063 A 
ATOM     10  N   UNL     1       1.788   4.330  -9.752  0.00  0.00    -0.248 NA
ATOM     11  C   UNL     1       0.515   4.515 -10.155  0.00  0.00    +0.098 A 
ATOM     12  C   UNL     1       0.120   5.837 -10.302  0.00  0.00    +0.021 A 
ATOM     13  C   UNL     1       1.007   6.874 -10.052  0.00  0.00    +0.003 A 
ATOM     14  C   UNL     1       2.271   6.549  -9.587  0.00  0.00    +0.015 A 
ENDBRANCH   1   9
BRANCH   1  15
ATOM     15  C   UNL     1       3.759   6.052  -7.931  0.00  0.00    +0.028 C 
BRANCH  15  16
ATOM     16  C   UNL     1       3.641   5.304  -6.628  0.00  0.00    +0.073 C 
BRANCH  16  18
ATOM     17  C   UNL     1       2.057   5.782  -5.942  0.00  0.00    +0.090 C 
ATOM     18  N   UNL     1       2.268   5.386  -6.142  0.00  0.00    -0.270 NA
ATOM     19  C   UNL     1       1.756   4.021  -6.159  0.00  0.00    +0.090 C 
ENDBRANCH  16  18
ENDBRANCH  15  16
ENDBRANCH   1  15
TORSDOF 5
ENDMDL
MODEL 2
REMARK VINA RESULT:      -6.5      4.114      6.538
REMARK  Name = 
REMARK  5 active torsions:
REMARK  status: ('A' for Active; 'I' for Inactive)
REMARK    1  A    between atoms: N_2  and  C_4
REMARK    2  A    between atoms: C_4  and  C_5
REMARK    3  A    between atoms: C_5  and  C_6
REMARK    4  A    between atoms: C_6  and  C_7
REMARK    5  A    between atoms: C_6  and  C_14
REMARK                            x       y       z     vdW  Elec       q    Type
REMARK                         _______ _______ _______ _____ _____    ______ ____
ROOT
ATOM      1  C   UNL     1       1.025   6.125  -7.718  0.00  0.00    +0.064 C 
ENDROOT
BRANCH   1   2
ATOM      2  C   UNL     1      -0.080   5.297  -6.840  0.00  0.00    -0.017 A 
ATOM      3  C   UNL     1      -1.380   5.681  -7.035  0.00  0.00    -0.003 A 
ATOM      4  C   UNL     1      -2.369   5.544  -6.091  0.00  0.00    +0.011 A 
ATOM      5  C   UNL     1      -1.934   5.546  -4.771  0.00  0.00    +0.058 A 
ATOM      6 CL   UNL     1      -3.184   5.359  -3.550  0.00  0.00    -0.082 Cl
ATOM      7  C   UNL     1      -0.587   5.569  -4.470  0.00  0.00    +0.011 A 
ATOM      8  C   UNL     1       0.323   5.377  -5.505  0.00  0.00    -0.003 A 
ENDBRANCH   1   2
BRANCH   1   9
ATOM      9  C   UNL     1       0.247   5.883  -9.141  0.00  0.00    +0.063 A 
ATOM     10  N   UNL     1       0.589   6.942  -9.923  0.00  0.00    -0.248 NA
ATOM     11  C   UNL     1       0.334   6.951 -11.247  0.00  0.00    +0.098 A 
ATOM     12  C   UNL     1       0.177   5.703 -11.835  0.00  0.00    +0.021 A 
ATOM     13  C   UNL     1       0.271   4.546 -11.078  0.00  0.00    +0.003 A 
ATOM     14  C   UNL     1       0.594   4.672  -9.736  0.00  0.00    +0.015 A 
ENDBRANCH   1   9
BRANCH   1  15
ATOM     15  C   UNL     1       1.948   4.751  -7.924  0.00  0.00    +0.028 C 
BRANCH  15  16
ATOM     16  C   UNL     1       3.347   5.289  -7.769  0.00  0.00    +0.073 C 
BRANCH  16  18
ATOM     17  C   UNL     1       4.347   4.622  -9.098  0.00  0.00    +0.090 C 
ATOM     18  N   UNL     1       4.104   5.036  -8.990  0.00  0.00    -0.270 NA
ATOM     19  C   UNL     1       4.182   6.317  -9.683  0.00  0.00    +0.090 C 
ENDBRANCH  16  18
ENDBRANCH  15  16
ENDBRANCH   1  15
TORSDOF 5
ENDMDL
MODEL 3
REMARK VINA RESULT:      -6.4      3.092      5.626
REMARK  Name = 
REMARK  5 active torsions:
REMARK  status: ('A' for Active; 'I' for Inactive)
REMARK    1  A    between atoms: N_2  and  C_4
REMARK    2  A    between atoms: C_4  and  C_5
REMARK    3  A    between atoms: C_5  and  C_6
REMARK    4  A    between atoms: C_6  and  C_7
REMARK    5  A    between atoms: C_6  and  C_14
REMARK                            x       y       z     vdW  Elec       q    Type
REMARK                         _______ _______ _______ _____ _____    ______ ____
ROOT
ATOM      1  C   UNL     1       3.789   5.339  -9.968  0.00  0.00    +0.064 C 
ENDROOT
BRANCH   1   2
ATOM      2  C   UNL     1       3.326   5.590  -8.418  0.00  0.00    -0.017 A 
ATOM      3  C   UNL     1       2.295   4.796  -7.988  0.00  0.00    -0.003 A 
ATOM      4  C   UNL     1       1.416   5.156  -6.994  0.00  0.00    +0.011 A 
ATOM      5  C   UNL     1       1.229   6.525  -6.834  0.00  0.00    +0.058 A 
ATOM      6 CL   UNL     1       0.118   7.004  -5.561  0.00  0.00    -0.082 Cl
ATOM      7  C   UNL     1       1.978   7.431  -7.559  0.00  0.00    +0.011 A 
ATOM      8  C   UNL     1       3.061   6.954  -8.290  0.00  0.00    -0.003 A 
ENDBRANCH   1   2
BRANCH   1   9
ATOM      9  C   UNL     1       5.074   6.353  -9.869  0.00  0.00    +0.063 A 
ATOM     10  N   UNL     1       6.133   5.561  -9.547  0.00  0.00    -0.248 NA
ATOM     11  C   UNL     1       7.401   6.014  -9.627  0.00  0.00    +0.098 A 
ATOM     12  C   UNL     1       7.600   7.088 -10.482  0.00  0.00    +0.021 A 
ATOM     13  C   UNL     1       6.540   7.642 -11.185  0.00  0.00    +0.003 A 
ATOM     14  C   UNL     1       5.296   7.046 -11.057  0.00  0.00    +0.015 A 
ENDBRANCH   1   9
BRANCH   1  15
ATOM     15  C   UNL     1       2.792   6.564 -10.504  0.00  0.00    +0.028 C 
BRANCH  15  16
ATOM     16  C   UNL     1       1.865   5.827 -11.435  0.00  0.00    +0.073 C 
BRANCH  16  18
ATOM     17  C   UNL     1       0.284   6.340 -10.764  0.00  0.00    +0.090 C 
ATOM     18  N   UNL     1       0.495   5.934 -10.943  0.00  0.00    -0.270 NA
ATOM     19  C   UNL     1      -0.013   4.569 -10.877  0.00  0.00    +0.090 C 
ENDBRANCH  16  18
ENDBRANCH  15  16
ENDBRANCH   1  15
TORSDOF 5
ENDMDL
MODEL 4
REMARK VINA RESULT:      -6.3      4.526      7.800
REMARK  Name = 
REMARK  5 active torsions:
REMARK  status: ('A' for Active; 'I' for Inactive)
REMARK    1  A    between atoms: N_2  and  C_4
REMARK    2  A    between atoms: C_4  and  C_5
REMARK    3  A    between atoms: C_5  and  C_6
REMARK    4  A    between atoms: C_6  and  C_7
REMARK    5  A    between atoms: C_6  and  C_14
REMARK                            x       y       z     vdW  Elec       q    Type
REMARK                         _______ _______ _______ _____ _____    ______ ____
ROOT
ATOM      1  C   UNL     1       1.192   4.970  -5.583  0.00  0.00    +0.064 C 
ENDROOT
BRANCH   1   2
ATOM      2  C   UNL     1       0.090   5.905  -4.813  0.00  0.00    -0.017 A 
ATOM      3  C   UNL     1      -0.125   5.582  -3.500  0.00  0.00    -0.003 A 
ATOM      4  C   UNL     1      -1.303   5.825  -2.835  0.00  0.00    +0.011 A 
ATOM      5  C   UNL     1      -2.438   5.872  -3.636  0.00  0.00    +0.058 A 
ATOM      6 CL   UNL     1      -3.952   6.194  -2.805  0.00  0.00    -0.082 Cl
ATOM      7  C   UNL     1      -2.337   5.792  -5.011  0.00  0.00    +0.011 A 
ATOM      8  C   UNL     1      -1.073   5.877  -5.585  0.00  0.00    -0.003 A 
ENDBRANCH   1   2
BRANCH   1   9
ATOM      9  C   UNL     1       2.459   5.551  -4.720  0.00  0.00    +0.063 A 
ATOM     10  N   UNL     1       3.463   4.652  -4.906  0.00  0.00    -0.248 NA
ATOM     11  C   UNL     1       4.733   4.930  -4.549  0.00  0.00    +0.098 A 
ATOM     12  C   UNL     1       5.047   6.279  -4.455  0.00  0.00    +0.021 A 
ATOM     13  C   UNL     1       4.089   7.249  -4.710  0.00  0.00    +0.003 A 
ATOM     14  C   UNL     1       2.835   6.830  -5.124  0.00  0.00    +0.015 A 
ENDBRANCH   1   9
BRANCH   1  15
ATOM     15  C   UNL     1       1.398   6.124  -6.770  0.00  0.00    +0.028 C 
BRANCH  15  16
ATOM     16  C   UNL     1       1.542   5.277  -8.007  0.00  0.00    +0.073 C 
BRANCH  16  18
ATOM     17  C   UNL     1       3.065   5.884  -8.730  0.00  0.00    +0.090 C 
ATOM     18  N   UNL     1       2.876   5.459  -8.570  0.00  0.00    -0.270 NA
ATOM     19  C   UNL     1       3.412   4.118  -8.769  0.00  0.00    +0.090 C 
ENDBRANCH  16  18
ENDBRANCH  15  16
ENDBRANCH   1  15
TORSDOF 5
ENDMDL
MODEL 5
REMARK VINA RESULT:      -6.3      3.841      6.086
REMARK  Name = 
REMARK  5 active torsions:
REMARK  status: ('A' for Active; 'I' for Inactive)
REMARK    1  A    between atoms: N_2  and  C_4
REMARK    2  A    between atoms: C_4  and  C_5
REMARK    3  A    between atoms: C_5  and  C_6
REMARK    4  A    between atoms: C_6  and  C_7
REMARK    5  A    between atoms: C_6  and  C_14
REMARK                            x       y       z     vdW  Elec       q    Type
REMARK                         _______ _______ _______ _____ _____    ______ ____
ROOT
ATOM      1  C   UNL     1       2.849   7.084  -6.672  0.00  0.00    +0.064 C 
ENDROOT
BRANCH   1   2
ATOM      2  C   UNL     1       1.604   6.070  -6.356  0.00  0.00    -0.017 A 
ATOM      3  C   UNL     1       0.850   5.723  -7.446  0.00  0.00    -0.003 A 
ATOM      4  C   UNL     1      -0.474   5.362  -7.377  0.00  0.00    +0.011 A 
ATOM      5  C   UNL     1      -1.179   5.895  -6.304  0.00  0.00    +0.058 A 
ATOM      6 CL   UNL     1      -2.871   5.435  -6.193  0.00  0.00    -0.082 Cl
ATOM      7  C   UNL     1      -0.535   6.633  -5.330  0.00  0.00    +0.011 A 
ATOM      8  C   UNL     1       0.856   6.655  -5.333  0.00  0.00    -0.003 A 
ENDBRANCH   1   2
BRANCH   1   9
ATOM      9  C   UNL     1       3.446   6.159  -7.886  0.00  0.00    +0.063 A 
ATOM     10  N   UNL     1       3.577   7.000  -8.948  0.00  0.00    -0.248 NA
ATOM     11  C   UNL     1       4.272   6.644 -10.047  0.00  0.00    +0.098 A 
ATOM     12  C   UNL     1       5.218   5.646  -9.861  0.00  0.00    +0.021 A 
ATOM     13  C   UNL     1       5.401   5.067  -8.614  0.00  0.00    +0.003 A 
ATOM     14  C   UNL     1       4.661   5.564  -7.553  0.00  0.00    +0.015 A 
ENDBRANCH   1   9
BRANCH   1  15
ATOM     15  C   UNL     1       3.809   6.320  -5.542  0.00  0.00    +0.028 C 
BRANCH  15  16
ATOM     16  C   UNL     1       4.321   7.482  -4.730  0.00  0.00    +0.073 C 
BRANCH  16  18
ATOM     17  C   UNL     1       3.690   7.766  -3.077  0.00  0.00    +0.090 C 
ATOM     18  N   UNL     1       3.808   7.387  -3.367  0.00  0.00    -0.270 NA
ATOM     19  C   UNL     1       3.947   5.987  -2.985  0.00  0.00    +0.090 C 
ENDBRANCH  16  18
ENDBRANCH  15  16
ENDBRANCH   1  15
TORSDOF 5
ENDMDL
MODEL 6
REMARK VINA RESULT:      -6.3      1.196      3.342
REMARK  Name = 
REMARK  5 active torsions:
REMARK  status: ('A' for Active; 'I' for Inactive)
REMARK    1  A    between atoms: N_2  and  C_4
REMARK    2  A    between atoms: C_4  and  C_5
REMARK    3  A    between atoms: C_5  and  C_6
REMARK    4  A    between atoms: C_6  and  C_7
REMARK    5  A    between atoms: C_6  and  C_14
REMARK                            x       y       z     vdW  Elec       q    Type
REMARK                         _______ _______ _______ _____ _____    ______ ____
ROOT
ATOM      1  C   UNL     1       3.661   6.566 -10.026  0.00  0.00    +0.064 C 
ENDROOT
BRANCH   1   2
ATOM      2  C   UNL     1       5.001   5.715 -10.423  0.00  0.00    -0.017 A 
ATOM      3  C   UNL     1       6.109   5.995  -9.667  0.00  0.00    -0.003 A 
ATOM      4  C   UNL     1       7.399   5.843 -10.115  0.00  0.00    +0.011 A 
ATOM      5  C   UNL     1       7.567   5.953 -11.490  0.00  0.00    +0.058 A 
ATOM      6 CL   UNL     1       9.209   5.750 -12.082  0.00  0.00    -0.082 Cl
ATOM      7  C   UNL     1       6.477   6.087 -12.327  0.00  0.00    +0.011 A 
ATOM      8  C   UNL     1       5.208   5.899 -11.791  0.00  0.00    -0.003 A 
ENDBRANCH   1   2
BRANCH   1   9
ATOM      9  C   UNL     1       3.422   5.757  -8.620  0.00  0.00    +0.063 A 
ATOM     10  N   UNL     1       2.440   6.442  -7.973  0.00  0.00    -0.248 NA
ATOM     11  C   UNL     1       1.812   5.925  -6.898  0.00  0.00    +0.098 A 
ATOM     12  C   UNL     1       1.849   4.542  -6.790  0.00  0.00    +0.021 A 
ATOM     13  C   UNL     1       2.509   3.775  -7.739  0.00  0.00    +0.003 A 
ATOM     14  C   UNL     1       3.067   4.426  -8.827  0.00  0.00    +0.015 A 
ENDBRANCH   1   9
BRANCH   1  15
ATOM     15  C   UNL     1       2.690   5.503 -10.868  0.00  0.00    +0.028 C 
BRANCH  15  16
ATOM     16  C   UNL     1       1.671   6.429 -11.481  0.00  0.00    +0.073 C 
BRANCH  16  18
ATOM     17  C   UNL     1       0.067   6.469 -10.683  0.00  0.00    +0.090 C 
ATOM     18  N   UNL     1       0.355   6.147 -10.917  0.00  0.00    -0.270 NA
ATOM     19  C   UNL     1       0.195   4.699 -10.984  0.00  0.00    +0.090 C 
ENDBRANCH  16  18
ENDBRANCH  15  16
ENDBRANCH   1  15
TORSDOF 5
ENDMDL
MODEL 7
REMARK VINA RESULT:      -6.3      1.591      4.101
REMARK  Name = 
REMARK  5 active torsions:
REMARK  status: ('A' for Active; 'I' for Inactive)
REMARK    1  A    between atoms: N_2  and  C_4
REMARK    2  A    between atoms: C_4  and  C_5
REMARK    3  A    between atoms: C_5  and  C_6
REMARK    4  A    between atoms: C_6  and  C_7
REMARK    5  A    between atoms: C_6  and  C_14
REMARK                            x       y       z     vdW  Elec       q    Type
REMARK                         _______ _______ _______ _____ _____    ______ ____
ROOT
ATOM      1  C   UNL     1       2.935   6.659  -8.131  0.00  0.00    +0.064 C 
ENDROOT
BRANCH   1   2
ATOM      2  C   UNL     1       4.033   5.975  -9.134  0.00  0.00    -0.017 A 
ATOM      3  C   UNL     1       5.238   5.675  -8.555  0.00  0.00    -0.003 A 
ATOM      4  C   UNL     1       6.425   5.614  -9.245  0.00  0.00    +0.011 A 
ATOM      5  C   UNL     1       6.487   6.402 -10.388  0.00  0.00    +0.058 A 
ATOM      6 CL   UNL     1       7.993   6.329 -11.290  0.00  0.00    -0.082 Cl
ATOM      7  C   UNL     1       5.377   7.092 -10.834  0.00  0.00    +0.011 A 
ATOM      8  C   UNL     1       4.149   6.817 -10.241  0.00  0.00    -0.003 A 
ENDBRANCH   1   2
BRANCH   1   9
ATOM      9  C   UNL     1       3.710   6.180  -6.768  0.00  0.00    +0.063 A 
ATOM     10  N   UNL     1       3.662   7.251  -5.931  0.00  0.00    -0.248 NA
ATOM     11  C   UNL     1       3.981   7.141  -4.626  0.00  0.00    +0.098 A 
ATOM     12  C   UNL     1       3.878   5.865  -4.090  0.00  0.00    +0.021 A 
ATOM     13  C   UNL     1       3.480   4.795  -4.878  0.00  0.00    +0.003 A 
ATOM     14  C   UNL     1       3.125   5.054  -6.192  0.00  0.00    +0.015 A 
ENDBRANCH   1   9
BRANCH   1  15
ATOM     15  C   UNL     1       1.999   5.278  -8.152  0.00  0.00    +0.028 C 
BRANCH  15  16
ATOM     16  C   UNL     1       0.674   5.806  -8.638  0.00  0.00    +0.073 C 
BRANCH  16  18
ATOM     17  C   UNL     1       0.502   4.903 -10.176  0.00  0.00    +0.090 C 
ATOM     18  N   UNL     1       0.447   5.362 -10.009  0.00  0.00    -0.270 NA
ATOM     19  C   UNL     1       0.264   6.576 -10.796  0.00  0.00    +0.090 C 
ENDBRANCH  16  18
ENDBRANCH  15  16
ENDBRANCH   1  15
TORSDOF 5
ENDMDL
MODEL 8
REMARK VINA RESULT:      -6.2      3.044      5.613
REMARK  Name = 
REMARK  5 active torsions:
REMARK  status: ('A' for Active; 'I' for Inactive)
REMARK    1  A    between atoms: N_2  and  C_4
REMARK    2  A    between atoms: C_4  and  C_5
REMARK    3  A    between atoms: C_5  and  C_6
REMARK    4  A    between atoms: C_6  and  C_7
REMARK    5  A    between atoms: C_6  and  C_14
REMARK                            x       y       z     vdW  Elec       q    Type
REMARK                         _______ _______ _______ _____ _____    ______ ____
ROOT
ATOM      1  C   UNL     1       3.853   5.177  -9.480  0.00  0.00    +0.064 C 
ENDROOT
BRANCH   1   2
ATOM      2  C   UNL     1       4.156   6.143  -8.193  0.00  0.00    -0.017 A 
ATOM      3  C   UNL     1       4.620   5.494  -7.079  0.00  0.00    -0.003 A 
ATOM      4  C   UNL     1       4.437   5.950  -5.796  0.00  0.00    +0.011 A 
ATOM      5  C   UNL     1       3.314   6.747  -5.603  0.00  0.00    +0.058 A 
ATOM      6 CL   UNL     1       3.071   7.349  -3.971  0.00  0.00    -0.082 Cl
ATOM      7  C   UNL     1       2.526   7.128  -6.671  0.00  0.00    +0.011 A 
ATOM      8  C   UNL     1       2.993   6.878  -7.957  0.00  0.00    -0.003 A 
ENDBRANCH   1   2
BRANCH   1   9
ATOM      9  C   UNL     1       5.164   5.690 -10.320  0.00  0.00    +0.063 A 
ATOM     10  N   UNL     1       4.918   6.997 -10.608  0.00  0.00    -0.248 NA
ATOM     11  C   UNL     1       5.888   7.810 -11.073  0.00  0.00    +0.098 A 
ATOM     12  C   UNL     1       7.188   7.419 -10.785  0.00  0.00    +0.021 A 
ATOM     13  C   UNL     1       7.436   6.255 -10.072  0.00  0.00    +0.003 A 
ATOM     14  C   UNL     1       6.348   5.538  -9.601  0.00  0.00    +0.015 A 
ENDBRANCH   1   9
BRANCH   1  15
ATOM     15  C   UNL     1       2.882   6.341 -10.174  0.00  0.00    +0.028 C 
BRANCH  15  16
ATOM     16  C   UNL     1       1.844   5.505 -10.875  0.00  0.00    +0.073 C 
BRANCH  16  18
ATOM     17  C   UNL     1       1.750   6.463 -12.386  0.00  0.00    +0.090 C 
ATOM     18  N   UNL     1       1.646   6.009 -12.230  0.00  0.00    -0.270 NA
ATOM     19  C   UNL     1       0.875   4.986 -12.927  0.00  0.00    +0.090 C 
ENDBRANCH  16  18
ENDBRANCH  15  16
ENDBRANCH   1  15
TORSDOF 5
ENDMDL
MODEL 9
REMARK VINA RESULT:      -6.1      3.735      6.136
REMARK  Name = 
REMARK  5 active torsions:
REMARK  status: ('A' for Active; 'I' for Inactive)
REMARK    1  A    between atoms: N_2  and  C_4
REMARK    2  A    between atoms: C_4  and  C_5
REMARK    3  A    between atoms: C_5  and  C_6
REMARK    4  A    between atoms: C_6  and  C_7
REMARK    5  A    between atoms: C_6  and  C_14
REMARK                            x       y       z     vdW  Elec       q    Type
REMARK                         _______ _______ _______ _____ _____    ______ ____
ROOT
ATOM      1  C   UNL     1       1.214   6.716  -6.575  0.00  0.00    +0.064 C 
ENDROOT
BRANCH   1   2
ATOM      2  C   UNL     1       2.299   6.216  -5.456  0.00  0.00    -0.017 A 
ATOM      3  C   UNL     1       1.853   6.254  -4.161  0.00  0.00    -0.003 A 
ATOM      4  C   UNL     1       2.677   6.407  -3.072  0.00  0.00    +0.011 A 
ATOM      5  C   UNL     1       3.867   7.083  -3.318  0.00  0.00    +0.058 A 
ATOM      6 CL   UNL     1       4.939   7.277  -1.940  0.00  0.00    -0.082 Cl
ATOM      7  C   UNL     1       4.216   7.456  -4.601  0.00  0.00    +0.011 A 
ATOM      8  C   UNL     1       3.462   6.961  -5.660  0.00  0.00    -0.003 A 
ENDBRANCH   1   2
BRANCH   1   9
ATOM      9  C   UNL     1      -0.082   6.445  -5.609  0.00  0.00    +0.063 A 
ATOM     10  N   UNL     1      -0.511   7.678  -5.227  0.00  0.00    -0.248 NA
ATOM     11  C   UNL     1      -1.707   7.855  -4.630  0.00  0.00    +0.098 A 
ATOM     12  C   UNL     1      -2.645   6.859  -4.863  0.00  0.00    +0.021 A 
ATOM     13  C   UNL     1      -2.335   5.764  -5.655  0.00  0.00    +0.003 A 
ATOM     14  C   UNL     1      -1.088   5.731  -6.257  0.00  0.00    +0.015 A 
ENDBRANCH   1   9
BRANCH   1  15
ATOM     15  C   UNL     1       1.121   5.183  -7.226  0.00  0.00    +0.028 C 
BRANCH  15  16
ATOM     16  C   UNL     1       1.912   5.336  -8.499  0.00  0.00    +0.073 C 
BRANCH  16  18
ATOM     17  C   UNL     1       2.669   3.712  -8.517  0.00  0.00    +0.090 C 
ATOM     18  N   UNL     1       2.758   4.163  -8.691  0.00  0.00    -0.270 NA
ATOM     19  C   UNL     1       3.995   4.657  -9.284  0.00  0.00    +0.090 C 
ENDBRANCH  16  18
ENDBRANCH  15  16
ENDBRANCH   1  15
TORSDOF 5
ENDMDL
