MODEL 1
REMARK VINA RESULT:      -9.1      0.000      0.000
REMARK  Name = 
REMARK  7 active torsions:
REMARK  status: ('A' for Active; 'I' for Inactive)
REMARK    1  A    between atoms: C_2  and  O_4
REMARK    2  A    between atoms: O_4  and  C_5
REMARK    3  A    between atoms: C_8  and  C_9
REMARK    4  A    between atoms: C_9  and  C_10
REMARK    5  A    between atoms: C_9  and  C_20
REMARK    6  A    between atoms: C_13  and  O_14
REMARK    7  A    between atoms: O_14  and  C_15
REMARK                            x       y       z     vdW  Elec       q    Type
REMARK                         _______ _______ _______ _____ _____    ______ ____
ROOT
ATOM      1  C   UNL     1       2.142   6.730  -6.954  0.00  0.00    +0.085 C 
ENDROOT
BRANCH   1   2
ATOM      2  C   UNL     1       3.148   6.268  -5.947  0.00  0.00    +0.067 A 
ATOM      3  N   UNL     1       3.073   5.058  -5.377  0.00  0.00    -0.248 NA
ATOM      4  C   UNL     1       3.737   4.714  -4.267  0.00  0.00    +0.098 A 
ATOM      5  C   UNL     1       4.752   5.536  -3.851  0.00  0.00    +0.021 A 
ATOM      6  C   UNL     1       4.993   6.725  -4.510  0.00  0.00    +0.003 A 
ATOM      7  C   UNL     1       4.089   7.166  -5.462  0.00  0.00    +0.015 A 
ENDBRANCH   1   2
BRANCH   1   8
ATOM      8  C   UNL     1       2.414   5.999  -8.230  0.00  0.00    -0.013 A 
ATOM      9  C   UNL     1       3.040   4.758  -8.216  0.00  0.00    -0.000 A 
ATOM     10  C   UNL     1       3.935   4.393  -9.213  0.00  0.00    +0.037 A 
ATOM     11  C   UNL     1       4.224   5.249 -10.250  0.00  0.00    +0.148 A 
ATOM     12  C   UNL     1       3.372   6.328 -10.413  0.00  0.00    +0.037 A 
ATOM     13  C   UNL     1       2.412   6.651  -9.457  0.00  0.00    -0.000 A 
BRANCH  11  14
ATOM     14  O   UNL     1       5.499   5.386 -10.797  0.00  0.00    -0.424 OA
BRANCH  14  15
ATOM     15  C   UNL     1       6.346   6.346 -10.236  0.00  0.00    +0.322 C 
ATOM     16  O   UNL     1       6.986   5.963  -9.211  0.00  0.00    -0.250 OA
ATOM     17  C   UNL     1       6.774   7.535 -11.035  0.00  0.00    +0.122 C 
ENDBRANCH  14  15
ENDBRANCH  11  14
ENDBRANCH   1   8
BRANCH   1  21
ATOM     18  C   UNL     1      -1.632   5.824  -5.242  0.00  0.00    +0.148 A 
ATOM     19  C   UNL     1      -1.298   5.292  -6.473  0.00  0.00    +0.037 A 
ATOM     20  C   UNL     1      -0.101   5.602  -7.102  0.00  0.00    -0.000 A 
ATOM     21  C   UNL     1       0.813   6.339  -6.398  0.00  0.00    -0.013 A 
ATOM     22  C   UNL     1       0.361   7.078  -5.311  0.00  0.00    -0.000 A 
ATOM     23  C   UNL     1      -0.920   6.944  -4.828  0.00  0.00    +0.037 A 
BRANCH  18  24
ATOM     24  O   UNL     1      -2.887   5.664  -4.666  0.00  0.00    -0.424 OA
BRANCH  24  26
ATOM     25  C   UNL     1      -3.738   6.637  -2.533  0.00  0.00    +0.122 C 
ATOM     26  C   UNL     1      -2.926   5.629  -3.274  0.00  0.00    +0.322 C 
ATOM     27  O   UNL     1      -2.501   4.620  -2.635  0.00  0.00    -0.250 OA
ENDBRANCH  24  26
ENDBRANCH  18  24
ENDBRANCH   1  21
TORSDOF 7
ENDMDL
MODEL 2
REMARK VINA RESULT:      -8.8      2.303      4.763
REMARK  Name = 
REMARK  7 active torsions:
REMARK  status: ('A' for Active; 'I' for Inactive)
REMARK    1  A    between atoms: C_2  and  O_4
REMARK    2  A    between atoms: O_4  and  C_5
REMARK    3  A    between atoms: C_8  and  C_9
REMARK    4  A    between atoms: C_9  and  C_10
REMARK    5  A    between atoms: C_9  and  C_20
REMARK    6  A    between atoms: C_13  and  O_14
REMARK    7  A    between atoms: O_14  and  C_15
REMARK                            x       y       z     vdW  Elec       q    Type
REMARK                         _______ _______ _______ _____ _____    ______ ____
ROOT
ATOM      1  C   UNL     1       3.609   5.271  -9.727  0.00  0.00    +0.085 C 
ENDROOT
BRANCH   1   2
ATOM      2  C   UNL     1       2.620   5.906 -10.653  0.00  0.00    +0.067 A 
ATOM      3  N   UNL     1       1.526   6.531 -10.198  0.00  0.00    -0.248 NA
ATOM      4  C   UNL     1       0.468   6.834 -10.960  0.00  0.00    +0.098 A 
ATOM      5  C   UNL     1       0.621   6.757 -12.321  0.00  0.00    +0.021 A 
ATOM      6  C   UNL     1       1.800   6.281 -12.859  0.00  0.00    +0.003 A 
ATOM      7  C   UNL     1       2.742   5.707 -12.021  0.00  0.00    +0.015 A 
ENDBRANCH   1   2
BRANCH   1   8
ATOM      8  C   UNL     1       4.840   6.122  -9.731  0.00  0.00    -0.013 A 
ATOM      9  C   UNL     1       4.933   7.228 -10.567  0.00  0.00    -0.000 A 
ATOM     10  C   UNL     1       6.137   7.579 -11.162  0.00  0.00    +0.037 A 
ATOM     11  C   UNL     1       7.278   6.844 -10.938  0.00  0.00    +0.148 A 
ATOM     12  C   UNL     1       7.236   5.953  -9.878  0.00  0.00    +0.037 A 
ATOM     13  C   UNL     1       6.046   5.659  -9.218  0.00  0.00    -0.000 A 
BRANCH  11  14
ATOM     14  O   UNL     1       8.226   6.578 -11.925  0.00  0.00    -0.424 OA
BRANCH  14  15
ATOM     15  C   UNL     1       7.835   5.776 -13.000  0.00  0.00    +0.322 C 
ATOM     16  O   UNL     1       7.764   4.536 -12.747  0.00  0.00    -0.250 OA
ATOM     17  C   UNL     1       7.146   6.379 -14.182  0.00  0.00    +0.122 C 
ENDBRANCH  14  15
ENDBRANCH  11  14
ENDBRANCH   1   8
BRANCH   1  21
ATOM     18  C   UNL     1       1.781   5.077  -5.905  0.00  0.00    +0.148 A 
ATOM     19  C   UNL     1       2.493   6.206  -6.261  0.00  0.00    +0.037 A 
ATOM     20  C   UNL     1       3.156   6.298  -7.476  0.00  0.00    -0.000 A 
ATOM     21  C   UNL     1       2.964   5.289  -8.381  0.00  0.00    -0.013 A 
ATOM     22  C   UNL     1       2.491   4.069  -7.912  0.00  0.00    -0.000 A 
ATOM     23  C   UNL     1       2.049   3.914  -6.618  0.00  0.00    +0.037 A 
BRANCH  18  24
ATOM     24  O   UNL     1       1.247   4.891  -4.635  0.00  0.00    -0.424 OA
BRANCH  24  26
ATOM     25  C   UNL     1      -1.012   5.607  -5.415  0.00  0.00    +0.122 C 
ATOM     26  C   UNL     1       0.049   5.552  -4.367  0.00  0.00    +0.322 C 
ATOM     27  O   UNL     1      -0.262   5.885  -3.185  0.00  0.00    -0.250 OA
ENDBRANCH  24  26
ENDBRANCH  18  24
ENDBRANCH   1  21
TORSDOF 7
ENDMDL
MODEL 3
REMARK VINA RESULT:      -8.5      1.246      7.527
REMARK  Name = 
REMARK  7 active torsions:
REMARK  status: ('A' for Active; 'I' for Inactive)
REMARK    1  A    between atoms: C_2  and  O_4
REMARK    2  A    between atoms: O_4  and  C_5
REMARK    3  A    between atoms: C_8  and  C_9
REMARK    4  A    between atoms: C_9  and  C_10
REMARK    5  A    between atoms: C_9  and  C_20
REMARK    6  A    between atoms: C_13  and  O_14
REMARK    7  A    between atoms: O_14  and  C_15
REMARK                            x       y       z     vdW  Elec       q    Type
REMARK                         _______ _______ _______ _____ _____    ______ ____
ROOT
ATOM      1  C   UNL     1       1.322   5.373  -5.859  0.00  0.00    +0.085 C 
ENDROOT
BRANCH   1   2
ATOM      2  C   UNL     1       2.118   6.023  -4.772  0.00  0.00    +0.067 A 
ATOM      3  N   UNL     1       3.050   6.950  -5.035  0.00  0.00    -0.248 NA
ATOM      4  C   UNL     1       3.993   7.329  -4.164  0.00  0.00    +0.098 A 
ATOM      5  C   UNL     1       3.831   6.964  -2.852  0.00  0.00    +0.021 A 
ATOM      6  C   UNL     1       2.782   6.145  -2.487  0.00  0.00    +0.003 A 
ATOM      7  C   UNL     1       2.015   5.546  -3.473  0.00  0.00    +0.015 A 
ENDBRANCH   1   2
BRANCH   1   8
ATOM      8  C   UNL     1       0.011   6.088  -5.946  0.00  0.00    -0.013 A 
ATOM      9  C   UNL     1      -0.193   7.278  -5.259  0.00  0.00    -0.000 A 
ATOM     10  C   UNL     1      -1.426   7.580  -4.696  0.00  0.00    +0.037 A 
ATOM     11  C   UNL     1      -2.486   6.710  -4.808  0.00  0.00    +0.148 A 
ATOM     12  C   UNL     1      -2.355   5.699  -5.745  0.00  0.00    +0.037 A 
ATOM     13  C   UNL     1      -1.142   5.444  -6.379  0.00  0.00    -0.000 A 
BRANCH  11  14
ATOM     14  O   UNL     1      -3.401   6.480  -3.781  0.00  0.00    -0.424 OA
BRANCH  14  15
ATOM     15  C   UNL     1      -2.909   5.964  -2.578  0.00  0.00    +0.322 C 
ATOM     16  O   UNL     1      -2.600   4.736  -2.607  0.00  0.00    -0.250 OA
ATOM     17  C   UNL     1      -2.391   6.883  -1.519  0.00  0.00    +0.122 C 
ENDBRANCH  14  15
ENDBRANCH  11  14
ENDBRANCH   1   8
BRANCH   1  21
ATOM     18  C   UNL     1       3.592   5.702  -9.427  0.00  0.00    +0.148 A 
ATOM     19  C   UNL     1       2.726   6.720  -9.076  0.00  0.00    +0.037 A 
ATOM     20  C   UNL     1       1.920   6.637  -7.950  0.00  0.00    -0.000 A 
ATOM     21  C   UNL     1       2.114   5.575  -7.109  0.00  0.00    -0.013 A 
ATOM     22  C   UNL     1       2.767   4.454  -7.608  0.00  0.00    -0.000 A 
ATOM     23  C   UNL     1       3.371   4.460  -8.844  0.00  0.00    +0.037 A 
BRANCH  18  24
ATOM     24  O   UNL     1       4.288   5.685 -10.631  0.00  0.00    -0.424 OA
BRANCH  24  26
ATOM     25  C   UNL     1       5.820   7.596 -11.103  0.00  0.00    +0.122 C 
ATOM     26  C   UNL     1       5.578   6.210 -10.605  0.00  0.00    +0.322 C 
ATOM     27  O   UNL     1       6.499   5.645  -9.943  0.00  0.00    -0.250 OA
ENDBRANCH  24  26
ENDBRANCH  18  24
ENDBRANCH   1  21
TORSDOF 7
ENDMDL
MODEL 4
REMARK VINA RESULT:      -8.3      1.440      7.676
REMARK  Name = 
REMARK  7 active torsions:
REMARK  status: ('A' for Active; 'I' for Inactive)
REMARK    1  A    between atoms: C_2  and  O_4
REMARK    2  A    between atoms: O_4  and  C_5
REMARK    3  A    between atoms: C_8  and  C_9
REMARK    4  A    between atoms: C_9  and  C_10
REMARK    5  A    between atoms: C_9  and  C_20
REMARK    6  A    between atoms: C_13  and  O_14
REMARK    7  A    between atoms: O_14  and  C_15
REMARK                            x       y       z     vdW  Elec       q    Type
REMARK                         _______ _______ _______ _____ _____    ______ ____
ROOT
ATOM      1  C   UNL     1       3.229   5.159  -6.939  0.00  0.00    +0.085 C 
ENDROOT
BRANCH   1   2
ATOM      2  C   UNL     1       3.936   5.639  -5.711  0.00  0.00    +0.067 A 
ATOM      3  N   UNL     1       4.026   4.887  -4.606  0.00  0.00    -0.248 NA
ATOM      4  C   UNL     1       4.357   5.366  -3.401  0.00  0.00    +0.098 A 
ATOM      5  C   UNL     1       4.902   6.623  -3.344  0.00  0.00    +0.021 A 
ATOM      6  C   UNL     1       4.998   7.388  -4.490  0.00  0.00    +0.003 A 
ATOM      7  C   UNL     1       4.370   6.956  -5.646  0.00  0.00    +0.015 A 
ENDBRANCH   1   2
BRANCH   1   8
ATOM      8  C   UNL     1       1.891   5.827  -6.979  0.00  0.00    -0.013 A 
ATOM      9  C   UNL     1       1.598   6.876  -6.116  0.00  0.00    -0.000 A 
ATOM     10  C   UNL     1       0.327   7.032  -5.579  0.00  0.00    +0.037 A 
ATOM     11  C   UNL     1      -0.685   6.153  -5.892  0.00  0.00    +0.148 A 
ATOM     12  C   UNL     1      -0.461   5.319  -6.974  0.00  0.00    +0.037 A 
ATOM     13  C   UNL     1       0.791   5.221  -7.574  0.00  0.00    -0.000 A 
BRANCH  11  14
ATOM     14  O   UNL     1      -1.635   5.719  -4.969  0.00  0.00    -0.424 OA
BRANCH  14  15
ATOM     15  C   UNL     1      -2.496   6.677  -4.425  0.00  0.00    +0.322 C 
ATOM     16  O   UNL     1      -2.901   7.559  -5.240  0.00  0.00    -0.250 OA
ATOM     17  C   UNL     1      -3.203   6.410  -3.135  0.00  0.00    +0.122 C 
ENDBRANCH  14  15
ENDBRANCH  11  14
ENDBRANCH   1   8
BRANCH   1  21
ATOM     18  C   UNL     1       5.775   6.239 -10.154  0.00  0.00    +0.148 A 
ATOM     19  C   UNL     1       4.450   6.630 -10.176  0.00  0.00    +0.037 A 
ATOM     20  C   UNL     1       3.562   6.255  -9.178  0.00  0.00    -0.000 A 
ATOM     21  C   UNL     1       4.073   5.606  -8.086  0.00  0.00    -0.013 A 
ATOM     22  C   UNL     1       5.314   4.993  -8.210  0.00  0.00    -0.000 A 
ATOM     23  C   UNL     1       6.104   5.176  -9.321  0.00  0.00    +0.037 A 
BRANCH  18  24
ATOM     24  O   UNL     1       6.645   6.459 -11.217  0.00  0.00    -0.424 OA
BRANCH  24  26
ATOM     25  C   UNL     1       5.631   5.515 -13.291  0.00  0.00    +0.122 C 
ATOM     26  C   UNL     1       6.661   5.484 -12.212  0.00  0.00    +0.322 C 
ATOM     27  O   UNL     1       7.665   4.728 -12.368  0.00  0.00    -0.250 OA
ENDBRANCH  24  26
ENDBRANCH  18  24
ENDBRANCH   1  21
TORSDOF 7
ENDMDL
MODEL 5
REMARK VINA RESULT:      -8.2      1.886      2.657
REMARK  Name = 
REMARK  7 active torsions:
REMARK  status: ('A' for Active; 'I' for Inactive)
REMARK    1  A    between atoms: C_2  and  O_4
REMARK    2  A    between atoms: O_4  and  C_5
REMARK    3  A    between atoms: C_8  and  C_9
REMARK    4  A    between atoms: C_9  and  C_10
REMARK    5  A    between atoms: C_9  and  C_20
REMARK    6  A    between atoms: C_13  and  O_14
REMARK    7  A    between atoms: O_14  and  C_15
REMARK                            x       y       z     vdW  Elec       q    Type
REMARK                         _______ _______ _______ _____ _____    ______ ____
ROOT
ATOM      1  C   UNL     1       2.287   6.802  -6.734  0.00  0.00    +0.085 C 
ENDROOT
BRANCH   1   2
ATOM      2  C   UNL     1       3.236   6.378  -5.658  0.00  0.00    +0.067 A 
ATOM      3  N   UNL     1       3.212   5.143  -5.140  0.00  0.00    -0.248 NA
ATOM      4  C   UNL     1       3.802   4.805  -3.987  0.00  0.00    +0.098 A 
ATOM      5  C   UNL     1       4.707   5.686  -3.453  0.00  0.00    +0.021 A 
ATOM      6  C   UNL     1       4.907   6.917  -4.046  0.00  0.00    +0.003 A 
ATOM      7  C   UNL     1       4.055   7.326  -5.060  0.00  0.00    +0.015 A 
ENDBRANCH   1   2
BRANCH   1   8
ATOM      8  C   UNL     1       2.669   6.073  -7.984  0.00  0.00    -0.013 A 
ATOM      9  C   UNL     1       3.296   6.739  -9.029  0.00  0.00    -0.000 A 
ATOM     10  C   UNL     1       3.024   6.419 -10.352  0.00  0.00    +0.037 A 
ATOM     11  C   UNL     1       2.127   5.425 -10.668  0.00  0.00    +0.148 A 
ATOM     12  C   UNL     1       1.758   4.579  -9.636  0.00  0.00    +0.037 A 
ATOM     13  C   UNL     1       2.101   4.848  -8.314  0.00  0.00    -0.000 A 
BRANCH  11  14
ATOM     14  O   UNL     1       1.241   5.505 -11.741  0.00  0.00    -0.424 OA
BRANCH  14  15
ATOM     15  C   UNL     1       0.633   6.739 -11.990  0.00  0.00    +0.322 C 
ATOM     16  O   UNL     1       0.908   7.257 -13.113  0.00  0.00    -0.250 OA
ATOM     17  C   UNL     1      -0.559   7.167 -11.195  0.00  0.00    +0.122 C 
ENDBRANCH  14  15
ENDBRANCH  11  14
ENDBRANCH   1   8
BRANCH   1  21
ATOM     18  C   UNL     1      -1.539   5.753  -5.236  0.00  0.00    +0.148 A 
ATOM     19  C   UNL     1      -1.222   5.466  -6.550  0.00  0.00    +0.037 A 
ATOM     20  C   UNL     1      -0.006   5.838  -7.105  0.00  0.00    -0.000 A 
ATOM     21  C   UNL     1       0.936   6.371  -6.267  0.00  0.00    -0.013 A 
ATOM     22  C   UNL     1       0.512   6.895  -5.052  0.00  0.00    -0.000 A 
ATOM     23  C   UNL     1      -0.778   6.729  -4.603  0.00  0.00    +0.037 A 
BRANCH  18  24
ATOM     24  O   UNL     1      -2.805   5.540  -4.701  0.00  0.00    -0.424 OA
BRANCH  24  26
ATOM     25  C   UNL     1      -3.736   6.618  -2.653  0.00  0.00    +0.122 C 
ATOM     26  C   UNL     1      -2.901   5.572  -3.311  0.00  0.00    +0.322 C 
ATOM     27  O   UNL     1      -2.508   4.593  -2.608  0.00  0.00    -0.250 OA
ENDBRANCH  24  26
ENDBRANCH  18  24
ENDBRANCH   1  21
TORSDOF 7
ENDMDL
MODEL 6
REMARK VINA RESULT:      -8.2      2.555      3.526
REMARK  Name = 
REMARK  7 active torsions:
REMARK  status: ('A' for Active; 'I' for Inactive)
REMARK    1  A    between atoms: C_2  and  O_4
REMARK    2  A    between atoms: O_4  and  C_5
REMARK    3  A    between atoms: C_8  and  C_9
REMARK    4  A    between atoms: C_9  and  C_10
REMARK    5  A    between atoms: C_9  and  C_20
REMARK    6  A    between atoms: C_13  and  O_14
REMARK    7  A    between atoms: O_14  and  C_15
REMARK                            x       y       z     vdW  Elec       q    Type
REMARK                         _______ _______ _______ _____ _____    ______ ____
ROOT
ATOM      1  C   UNL     1       1.386   6.813  -8.724  0.00  0.00    +0.085 C 
ENDROOT
BRANCH   1   2
ATOM      2  C   UNL     1       2.748   6.212  -8.870  0.00  0.00    +0.067 A 
ATOM      3  N   UNL     1       3.131   5.145  -8.156  0.00  0.00    -0.248 NA
ATOM      4  C   UNL     1       4.405   4.763  -8.008  0.00  0.00    +0.098 A 
ATOM      5  C   UNL     1       5.337   5.315  -8.849  0.00  0.00    +0.021 A 
ATOM      6  C   UNL     1       4.966   6.305  -9.737  0.00  0.00    +0.003 A 
ATOM      7  C   UNL     1       3.703   6.865  -9.637  0.00  0.00    +0.015 A 
ENDBRANCH   1   2
BRANCH   1   8
ATOM      8  C   UNL     1       0.544   6.297  -9.847  0.00  0.00    -0.013 A 
ATOM      9  C   UNL     1       0.552   4.947 -10.176  0.00  0.00    -0.000 A 
ATOM     10  C   UNL     1       0.452   4.529 -11.496  0.00  0.00    +0.037 A 
ATOM     11  C   UNL     1       0.335   5.441 -12.520  0.00  0.00    +0.148 A 
ATOM     12  C   UNL     1       0.018   6.738 -12.153  0.00  0.00    +0.037 A 
ATOM     13  C   UNL     1       0.032   7.145 -10.822  0.00  0.00    -0.000 A 
BRANCH  11  14
ATOM     14  O   UNL     1       0.958   5.288 -13.757  0.00  0.00    -0.424 OA
BRANCH  14  15
ATOM     15  C   UNL     1       2.298   4.891 -13.765  0.00  0.00    +0.322 C 
ATOM     16  O   UNL     1       2.580   3.969 -14.588  0.00  0.00    -0.250 OA
ATOM     17  C   UNL     1       3.352   5.776 -13.182  0.00  0.00    +0.122 C 
ENDBRANCH  14  15
ENDBRANCH  11  14
ENDBRANCH   1   8
BRANCH   1  21
ATOM     18  C   UNL     1       0.029   5.605  -4.891  0.00  0.00    +0.148 A 
ATOM     19  C   UNL     1      -0.663   5.199  -6.016  0.00  0.00    +0.037 A 
ATOM     20  C   UNL     1      -0.294   5.612  -7.288  0.00  0.00    -0.000 A 
ATOM     21  C   UNL     1       0.871   6.320  -7.412  0.00  0.00    -0.013 A 
ATOM     22  C   UNL     1       1.385   6.940  -6.279  0.00  0.00    -0.000 A 
ATOM     23  C   UNL     1       0.859   6.711  -5.029  0.00  0.00    +0.037 A 
BRANCH  18  24
ATOM     24  O   UNL     1      -0.412   5.343  -3.598  0.00  0.00    -0.424 OA
BRANCH  24  26
ATOM     25  C   UNL     1      -2.269   7.007  -3.632  0.00  0.00    +0.122 C 
ATOM     26  C   UNL     1      -1.745   5.643  -3.330  0.00  0.00    +0.322 C 
ATOM     27  O   UNL     1      -2.582   4.727  -3.075  0.00  0.00    -0.250 OA
ENDBRANCH  24  26
ENDBRANCH  18  24
ENDBRANCH   1  21
TORSDOF 7
ENDMDL
MODEL 7
REMARK VINA RESULT:      -8.2      2.041      8.347
REMARK  Name = 
REMARK  7 active torsions:
REMARK  status: ('A' for Active; 'I' for Inactive)
REMARK    1  A    between atoms: C_2  and  O_4
REMARK    2  A    between atoms: O_4  and  C_5
REMARK    3  A    between atoms: C_8  and  C_9
REMARK    4  A    between atoms: C_9  and  C_10
REMARK    5  A    between atoms: C_9  and  C_20
REMARK    6  A    between atoms: C_13  and  O_14
REMARK    7  A    between atoms: O_14  and  C_15
REMARK                            x       y       z     vdW  Elec       q    Type
REMARK                         _______ _______ _______ _____ _____    ______ ____
ROOT
ATOM      1  C   UNL     1       2.273   6.850  -8.449  0.00  0.00    +0.085 C 
ENDROOT
BRANCH   1   2
ATOM      2  C   UNL     1       1.349   6.169  -9.409  0.00  0.00    +0.067 A 
ATOM      3  N   UNL     1       1.423   4.853  -9.648  0.00  0.00    -0.248 NA
ATOM      4  C   UNL     1       0.855   4.252 -10.701  0.00  0.00    +0.098 A 
ATOM      5  C   UNL     1      -0.077   4.962 -11.413  0.00  0.00    +0.021 A 
ATOM      6  C   UNL     1      -0.326   6.284 -11.100  0.00  0.00    +0.003 A 
ATOM      7  C   UNL     1       0.502   6.933 -10.198  0.00  0.00    +0.015 A 
ENDBRANCH   1   2
BRANCH   1   8
ATOM      8  C   UNL     1       2.088   6.205  -7.112  0.00  0.00    -0.013 A 
ATOM      9  C   UNL     1       1.184   5.164  -6.947  0.00  0.00    -0.000 A 
ATOM     10  C   UNL     1       0.445   5.032  -5.779  0.00  0.00    +0.037 A 
ATOM     11  C   UNL     1       0.591   5.928  -4.745  0.00  0.00    +0.148 A 
ATOM     12  C   UNL     1       1.700   6.755  -4.802  0.00  0.00    +0.037 A 
ATOM     13  C   UNL     1       2.498   6.830  -5.940  0.00  0.00    -0.000 A 
BRANCH  11  14
ATOM     14  O   UNL     1      -0.473   6.381  -3.967  0.00  0.00    -0.424 OA
BRANCH  14  15
ATOM     15  C   UNL     1      -1.169   5.436  -3.207  0.00  0.00    +0.322 C 
ATOM     16  O   UNL     1      -0.547   4.998  -2.194  0.00  0.00    -0.250 OA
ATOM     17  C   UNL     1      -2.653   5.308  -3.337  0.00  0.00    +0.122 C 
ENDBRANCH  14  15
ENDBRANCH  11  14
ENDBRANCH   1   8
BRANCH   1  21
ATOM     18  C   UNL     1       6.184   5.916  -9.798  0.00  0.00    +0.148 A 
ATOM     19  C   UNL     1       5.375   6.727 -10.570  0.00  0.00    +0.037 A 
ATOM     20  C   UNL     1       4.069   7.017 -10.202  0.00  0.00    -0.000 A 
ATOM     21  C   UNL     1       3.649   6.594  -8.970  0.00  0.00    -0.013 A 
ATOM     22  C   UNL     1       4.358   5.572  -8.351  0.00  0.00    -0.000 A 
ATOM     23  C   UNL     1       5.553   5.113  -8.854  0.00  0.00    +0.037 A 
BRANCH  18  24
ATOM     24  O   UNL     1       7.434   5.476 -10.219  0.00  0.00    -0.424 OA
BRANCH  24  26
ATOM     25  C   UNL     1       8.926   5.983 -12.153  0.00  0.00    +0.122 C 
ATOM     26  C   UNL     1       7.647   5.453 -11.596  0.00  0.00    +0.322 C 
ATOM     27  O   UNL     1       6.902   4.770 -12.360  0.00  0.00    -0.250 OA
ENDBRANCH  24  26
ENDBRANCH  18  24
ENDBRANCH   1  21
TORSDOF 7
ENDMDL
MODEL 8
REMARK VINA RESULT:      -8.2      2.685      4.774
REMARK  Name = 
REMARK  7 active torsions:
REMARK  status: ('A' for Active; 'I' for Inactive)
REMARK    1  A    between atoms: C_2  and  O_4
REMARK    2  A    between atoms: O_4  and  C_5
REMARK    3  A    between atoms: C_8  and  C_9
REMARK    4  A    between atoms: C_9  and  C_10
REMARK    5  A    between atoms: C_9  and  C_20
REMARK    6  A    between atoms: C_13  and  O_14
REMARK    7  A    between atoms: O_14  and  C_15
REMARK                            x       y       z     vdW  Elec       q    Type
REMARK                         _______ _______ _______ _____ _____    ______ ____
ROOT
ATOM      1  C   UNL     1       1.288   4.961  -6.196  0.00  0.00    +0.085 C 
ENDROOT
BRANCH   1   2
ATOM      2  C   UNL     1       0.012   5.725  -6.036  0.00  0.00    +0.067 A 
ATOM      3  N   UNL     1      -0.059   6.835  -5.288  0.00  0.00    -0.248 NA
ATOM      4  C   UNL     1      -1.207   7.372  -4.857  0.00  0.00    +0.098 A 
ATOM      5  C   UNL     1      -2.371   6.936  -5.434  0.00  0.00    +0.021 A 
ATOM      6  C   UNL     1      -2.344   5.903  -6.350  0.00  0.00    +0.003 A 
ATOM      7  C   UNL     1      -1.169   5.192  -6.534  0.00  0.00    +0.015 A 
ENDBRANCH   1   2
BRANCH   1   8
ATOM      8  C   UNL     1       1.684   5.043  -7.637  0.00  0.00    -0.013 A 
ATOM      9  C   UNL     1       2.608   4.153  -8.168  0.00  0.00    -0.000 A 
ATOM     10  C   UNL     1       3.523   4.557  -9.132  0.00  0.00    +0.037 A 
ATOM     11  C   UNL     1       3.537   5.852  -9.594  0.00  0.00    +0.148 A 
ATOM     12  C   UNL     1       2.429   6.625  -9.289  0.00  0.00    +0.037 A 
ATOM     13  C   UNL     1       1.461   6.191  -8.388  0.00  0.00    -0.000 A 
BRANCH  11  14
ATOM     14  O   UNL     1       4.709   6.549  -9.888  0.00  0.00    -0.424 OA
BRANCH  14  15
ATOM     15  C   UNL     1       5.814   5.807 -10.314  0.00  0.00    +0.322 C 
ATOM     16  O   UNL     1       5.809   5.495 -11.542  0.00  0.00    -0.250 OA
ATOM     17  C   UNL     1       7.068   5.784  -9.500  0.00  0.00    +0.122 C 
ENDBRANCH  14  15
ENDBRANCH  11  14
ENDBRANCH   1   8
BRANCH   1  21
ATOM     18  C   UNL     1       4.143   6.756  -3.624  0.00  0.00    +0.148 A 
ATOM     19  C   UNL     1       3.982   7.244  -4.907  0.00  0.00    +0.037 A 
ATOM     20  C   UNL     1       3.103   6.658  -5.806  0.00  0.00    -0.000 A 
ATOM     21  C   UNL     1       2.285   5.665  -5.337  0.00  0.00    -0.013 A 
ATOM     22  C   UNL     1       2.648   5.018  -4.162  0.00  0.00    -0.000 A 
ATOM     23  C   UNL     1       3.688   5.466  -3.381  0.00  0.00    +0.037 A 
BRANCH  18  24
ATOM     24  O   UNL     1       5.129   7.217  -2.759  0.00  0.00    -0.424 OA
BRANCH  24  26
ATOM     25  C   UNL     1       3.690   8.680  -1.341  0.00  0.00    +0.122 C 
ATOM     26  C   UNL     1       4.706   7.597  -1.487  0.00  0.00    +0.322 C 
ATOM     27  O   UNL     1       4.967   6.883  -0.473  0.00  0.00    -0.250 OA
ENDBRANCH  24  26
ENDBRANCH  18  24
ENDBRANCH   1  21
TORSDOF 7
ENDMDL
MODEL 9
REMARK VINA RESULT:      -8.1      2.458      7.748
REMARK  Name = 
REMARK  7 active torsions:
REMARK  status: ('A' for Active; 'I' for Inactive)
REMARK    1  A    between atoms: C_2  and  O_4
REMARK    2  A    between atoms: O_4  and  C_5
REMARK    3  A    between atoms: C_8  and  C_9
REMARK    4  A    between atoms: C_9  and  C_10
REMARK    5  A    between atoms: C_9  and  C_20
REMARK    6  A    between atoms: C_13  and  O_14
REMARK    7  A    between atoms: O_14  and  C_15
REMARK                            x       y       z     vdW  Elec       q    Type
REMARK                         _______ _______ _______ _____ _____    ______ ____
ROOT
ATOM      1  C   UNL     1       3.214   6.918  -6.531  0.00  0.00    +0.085 C 
ENDROOT
BRANCH   1   2
ATOM      2  C   UNL     1       1.844   6.333  -6.387  0.00  0.00    +0.067 A 
ATOM      3  N   UNL     1       1.380   5.404  -7.233  0.00  0.00    -0.248 NA
ATOM      4  C   UNL     1       0.086   5.080  -7.350  0.00  0.00    +0.098 A 
ATOM      5  C   UNL     1      -0.769   5.512  -6.369  0.00  0.00    +0.021 A 
ATOM      6  C   UNL     1      -0.307   6.338  -5.363  0.00  0.00    +0.003 A 
ATOM      7  C   UNL     1       0.965   6.876  -5.461  0.00  0.00    +0.015 A 
ENDBRANCH   1   2
BRANCH   1   8
ATOM      8  C   UNL     1       4.034   6.432  -5.378  0.00  0.00    -0.013 A 
ATOM      9  C   UNL     1       3.938   5.115  -4.946  0.00  0.00    -0.000 A 
ATOM     10  C   UNL     1       4.026   4.792  -3.598  0.00  0.00    +0.037 A 
ATOM     11  C   UNL     1       4.219   5.769  -2.649  0.00  0.00    +0.148 A 
ATOM     12  C   UNL     1       4.619   7.010  -3.117  0.00  0.00    +0.037 A 
ATOM     13  C   UNL     1       4.615   7.314  -4.475  0.00  0.00    -0.000 A 
BRANCH  11  14
ATOM     14  O   UNL     1       3.604   5.755  -1.399  0.00  0.00    -0.424 OA
BRANCH  14  15
ATOM     15  C   UNL     1       2.633   4.777  -1.165  0.00  0.00    +0.322 C 
ATOM     16  O   UNL     1       3.032   3.770  -0.508  0.00  0.00    -0.250 OA
ATOM     17  C   UNL     1       1.181   5.110  -1.292  0.00  0.00    +0.122 C 
ENDBRANCH  14  15
ENDBRANCH  11  14
ENDBRANCH   1   8
BRANCH   1  21
ATOM     18  C   UNL     1       4.623   5.576 -10.300  0.00  0.00    +0.148 A 
ATOM     19  C   UNL     1       5.284   5.188  -9.150  0.00  0.00    +0.037 A 
ATOM     20  C   UNL     1       4.898   5.644  -7.897  0.00  0.00    -0.000 A 
ATOM     21  C   UNL     1       3.745   6.378  -7.818  0.00  0.00    -0.013 A 
ATOM     22  C   UNL     1       3.267   6.976  -8.977  0.00  0.00    -0.000 A 
ATOM     23  C   UNL     1       3.813   6.702 -10.210  0.00  0.00    +0.037 A 
BRANCH  18  24
ATOM     24  O   UNL     1       5.084   5.269 -11.575  0.00  0.00    -0.424 OA
BRANCH  24  26
ATOM     25  C   UNL     1       7.522   5.103 -12.080  0.00  0.00    +0.122 C 
ATOM     26  C   UNL     1       6.263   5.897 -11.972  0.00  0.00    +0.322 C 
ATOM     27  O   UNL     1       6.245   7.057 -12.482  0.00  0.00    -0.250 OA
ENDBRANCH  24  26
ENDBRANCH  18  24
ENDBRANCH   1  21
TORSDOF 7
ENDMDL
