MODEL 1
REMARK VINA RESULT:     -10.2      0.000      0.000
REMARK  Name = 
REMARK  4 active torsions:
REMARK  status: ('A' for Active; 'I' for Inactive)
REMARK    1  A    between atoms: C_2  and  C_4
REMARK    2  A    between atoms: N_11  and  C_12
REMARK    3  A    between atoms: C_15  and  N_16
REMARK    4  A    between atoms: N_26  and  C_27
REMARK                            x       y       z     vdW  Elec       q    Type
REMARK                         _______ _______ _______ _____ _____    ______ ____
ROOT
ATOM      1  C   UNL     1      -1.049   5.585  -3.184  0.00  0.00    +0.087 A 
ATOM      2  C   UNL     1       0.196   5.440  -2.595  0.00  0.00    +0.264 A 
ATOM      3  O   UNL     1       0.274   4.686  -1.578  0.00  0.00    -0.267 OA
ATOM      4  N   UNL     1       1.313   5.896  -3.168  0.00  0.00    -0.282 N 
ATOM      5  C   UNL     1       1.278   6.466  -4.395  0.00  0.00    +0.150 A 
ATOM      6  C   UNL     1       0.101   6.302  -5.106  0.00  0.00    +0.050 A 
ATOM      7  C   UNL     1       0.034   6.780  -6.397  0.00  0.00    +0.105 A 
ATOM      8  N   UNL     1       1.210   7.019  -7.011  0.00  0.00    -0.210 NA
ATOM      9  C   UNL     1       2.318   7.280  -6.273  0.00  0.00    +0.244 A 
ATOM     10  N   UNL     1       3.532   7.368  -7.028  0.00  0.00    -0.159 NA
ATOM     11  N   UNL     1       2.367   7.056  -4.945  0.00  0.00    -0.195 NA
ATOM     12  C   UNL     1      -1.102   6.019  -4.494  0.00  0.00    -0.010 A 
ATOM     13  C   UNL     1      -2.376   6.517  -5.071  0.00  0.00    +0.031 C 
ENDROOT
BRANCH  10  14
ATOM     14  C   UNL     1       3.761   6.277  -7.929  0.00  0.00    +0.155 A 
ATOM     15  N   UNL     1       3.047   6.125  -9.067  0.00  0.00    -0.226 NA
ATOM     16  C   UNL     1       3.671   5.738 -10.206  0.00  0.00    +0.115 A 
ATOM     17  C   UNL     1       4.972   5.250 -10.175  0.00  0.00    +0.067 A 
ATOM     18  C   UNL     1       5.442   4.921  -8.910  0.00  0.00    +0.019 A 
ATOM     19  C   UNL     1       4.809   5.387  -7.763  0.00  0.00    +0.037 A 
BRANCH  17  20
ATOM     20  N   UNL     1       5.854   5.505 -11.272  0.00  0.00    -0.303 N 
ATOM     21  C   UNL     1       5.372   5.756 -12.606  0.00  0.00    +0.110 C 
ATOM     22  C   UNL     1       6.370   5.389 -13.667  0.00  0.00    +0.110 C 
ATOM     23  N   UNL     1       7.724   5.764 -13.335  0.00  0.00    -0.214 NA
ATOM     24  C   UNL     1       8.118   5.326 -12.017  0.00  0.00    +0.110 C 
ATOM     25  C   UNL     1       7.218   5.907 -10.955  0.00  0.00    +0.110 C 
ENDBRANCH  17  20
ENDBRANCH  10  14
BRANCH   4  26
ATOM     26  C   UNL     1       2.437   6.243  -2.320  0.00  0.00    +0.090 C 
ATOM     27  C   UNL     1       2.455   5.363  -1.103  0.00  0.00    +0.023 C 
ATOM     28  C   UNL     1       3.705   4.532  -1.165  0.00  0.00    +0.002 C 
ATOM     29  C   UNL     1       4.269   4.669  -2.551  0.00  0.00    +0.002 C 
ATOM     30  C   UNL     1       3.689   5.946  -3.108  0.00  0.00    +0.023 C 
ENDBRANCH   4  26
BRANCH   1  32
ATOM     31  C   UNL     1      -2.827   6.494  -1.639  0.00  0.00    +0.077 C 
ATOM     32  C   UNL     1      -2.261   5.357  -2.422  0.00  0.00    +0.178 C 
ATOM     33  O   UNL     1      -3.113   4.567  -2.928  0.00  0.00    -0.291 OA
ENDBRANCH   1  32
TORSDOF 4
ENDMDL
MODEL 2
REMARK VINA RESULT:     -10.2      1.566      3.815
REMARK  Name = 
REMARK  4 active torsions:
REMARK  status: ('A' for Active; 'I' for Inactive)
REMARK    1  A    between atoms: C_2  and  C_4
REMARK    2  A    between atoms: N_11  and  C_12
REMARK    3  A    between atoms: C_15  and  N_16
REMARK    4  A    between atoms: N_26  and  C_27
REMARK                            x       y       z     vdW  Elec       q    Type
REMARK                         _______ _______ _______ _____ _____    ______ ____
ROOT
ATOM      1  C   UNL     1       1.725   6.016  -2.171  0.00  0.00    +0.087 A 
ATOM      2  C   UNL     1       0.513   6.185  -2.819  0.00  0.00    +0.264 A 
ATOM      3  O   UNL     1      -0.327   6.973  -2.287  0.00  0.00    -0.267 OA
ATOM      4  N   UNL     1       0.290   5.715  -4.050  0.00  0.00    -0.282 N 
ATOM      5  C   UNL     1       1.278   5.105  -4.745  0.00  0.00    +0.150 A 
ATOM      6  C   UNL     1       2.555   5.240  -4.229  0.00  0.00    +0.050 A 
ATOM      7  C   UNL     1       3.616   4.719  -4.939  0.00  0.00    +0.105 A 
ATOM      8  N   UNL     1       3.397   4.464  -6.245  0.00  0.00    -0.210 NA
ATOM      9  C   UNL     1       2.136   4.232  -6.688  0.00  0.00    +0.244 A 
ATOM     10  N   UNL     1       2.013   4.124  -8.110  0.00  0.00    -0.159 NA
ATOM     11  N   UNL     1       1.049   4.501  -5.937  0.00  0.00    -0.195 NA
ATOM     12  C   UNL     1       2.793   5.539  -2.904  0.00  0.00    -0.010 A 
ATOM     13  C   UNL     1       4.003   5.017  -2.219  0.00  0.00    +0.031 C 
ENDROOT
BRANCH  10  14
ATOM     14  C   UNL     1       2.628   5.185  -8.851  0.00  0.00    +0.155 A 
ATOM     15  N   UNL     1       3.782   5.766  -8.447  0.00  0.00    -0.226 NA
ATOM     16  C   UNL     1       4.734   6.075  -9.361  0.00  0.00    +0.115 A 
ATOM     17  C   UNL     1       4.452   6.046 -10.721  0.00  0.00    +0.067 A 
ATOM     18  C   UNL     1       3.102   5.975 -11.036  0.00  0.00    +0.019 A 
ATOM     19  C   UNL     1       2.160   5.595 -10.087  0.00  0.00    +0.037 A 
BRANCH  17  20
ATOM     20  N   UNL     1       5.472   5.665 -11.650  0.00  0.00    -0.303 N 
ATOM     21  C   UNL     1       6.836   5.438 -11.247  0.00  0.00    +0.110 C 
ATOM     22  C   UNL     1       7.820   5.663 -12.360  0.00  0.00    +0.110 C 
ATOM     23  N   UNL     1       7.376   5.145 -13.632  0.00  0.00    -0.214 NA
ATOM     24  C   UNL     1       6.037   5.567 -13.971  0.00  0.00    +0.110 C 
ATOM     25  C   UNL     1       5.041   5.118 -12.930  0.00  0.00    +0.110 C 
ENDBRANCH  17  20
ENDBRANCH  10  14
BRANCH   4  26
ATOM     26  C   UNL     1      -1.071   5.400  -4.437  0.00  0.00    +0.090 C 
ATOM     27  C   UNL     1      -1.987   5.530  -3.254  0.00  0.00    +0.023 C 
ATOM     28  C   UNL     1      -2.944   6.652  -3.545  0.00  0.00    +0.002 C 
ATOM     29  C   UNL     1      -2.415   7.399  -4.736  0.00  0.00    +0.002 C 
ATOM     30  C   UNL     1      -1.490   6.441  -5.446  0.00  0.00    +0.023 C 
ENDBRANCH   4  26
BRANCH   1  32
ATOM     31  C   UNL     1       2.336   7.603  -0.305  0.00  0.00    +0.077 C 
ATOM     32  C   UNL     1       1.846   6.265  -0.748  0.00  0.00    +0.178 C 
ATOM     33  O   UNL     1       0.976   5.728   0.001  0.00  0.00    -0.291 OA
ENDBRANCH   1  32
TORSDOF 4
ENDMDL
MODEL 3
REMARK VINA RESULT:     -10.1      2.192      4.176
REMARK  Name = 
REMARK  4 active torsions:
REMARK  status: ('A' for Active; 'I' for Inactive)
REMARK    1  A    between atoms: C_2  and  C_4
REMARK    2  A    between atoms: N_11  and  C_12
REMARK    3  A    between atoms: C_15  and  N_16
REMARK    4  A    between atoms: N_26  and  C_27
REMARK                            x       y       z     vdW  Elec       q    Type
REMARK                         _______ _______ _______ _____ _____    ______ ____
ROOT
ATOM      1  C   UNL     1       1.487   6.465  -1.464  0.00  0.00    +0.087 A 
ATOM      2  C   UNL     1       0.306   6.461  -2.187  0.00  0.00    +0.264 A 
ATOM      3  O   UNL     1      -0.623   7.227  -1.789  0.00  0.00    -0.267 OA
ATOM      4  N   UNL     1       0.194   5.844  -3.367  0.00  0.00    -0.282 N 
ATOM      5  C   UNL     1       1.266   5.249  -3.940  0.00  0.00    +0.150 A 
ATOM      6  C   UNL     1       2.497   5.547  -3.378  0.00  0.00    +0.050 A 
ATOM      7  C   UNL     1       3.635   5.045  -3.972  0.00  0.00    +0.105 A 
ATOM      8  N   UNL     1       3.515   4.634  -5.251  0.00  0.00    -0.210 NA
ATOM      9  C   UNL     1       2.305   4.250  -5.727  0.00  0.00    +0.244 A 
ATOM     10  N   UNL     1       2.275   3.980  -7.133  0.00  0.00    -0.159 NA
ATOM     11  N   UNL     1       1.158   4.504  -5.066  0.00  0.00    -0.195 NA
ATOM     12  C   UNL     1       2.631   6.005  -2.085  0.00  0.00    -0.010 A 
ATOM     13  C   UNL     1       3.836   5.664  -1.286  0.00  0.00    +0.031 C 
ENDROOT
BRANCH  10  14
ATOM     14  C   UNL     1       2.847   5.004  -7.956  0.00  0.00    +0.155 A 
ATOM     15  N   UNL     1       4.033   4.839  -8.585  0.00  0.00    -0.226 NA
ATOM     16  C   UNL     1       4.188   5.284  -9.855  0.00  0.00    +0.115 A 
ATOM     17  C   UNL     1       3.249   6.130 -10.433  0.00  0.00    +0.067 A 
ATOM     18  C   UNL     1       2.345   6.694  -9.542  0.00  0.00    +0.019 A 
ATOM     19  C   UNL     1       2.170   6.170  -8.266  0.00  0.00    +0.037 A 
BRANCH  17  20
ATOM     20  N   UNL     1       2.981   6.043 -11.836  0.00  0.00    -0.303 N 
ATOM     21  C   UNL     1       1.742   6.500 -12.413  0.00  0.00    +0.110 C 
ATOM     22  C   UNL     1       1.400   5.795 -13.695  0.00  0.00    +0.110 C 
ATOM     23  N   UNL     1       2.537   5.592 -14.560  0.00  0.00    -0.214 NA
ATOM     24  C   UNL     1       3.662   4.999 -13.875  0.00  0.00    +0.110 C 
ATOM     25  C   UNL     1       4.120   5.862 -12.725  0.00  0.00    +0.110 C 
ENDBRANCH  17  20
ENDBRANCH  10  14
BRANCH   4  26
ATOM     26  C   UNL     1      -1.113   5.375  -3.785  0.00  0.00    +0.090 C 
ATOM     27  C   UNL     1      -2.096   5.517  -2.658  0.00  0.00    +0.023 C 
ATOM     28  C   UNL     1      -3.131   6.518  -3.086  0.00  0.00    +0.002 C 
ATOM     29  C   UNL     1      -2.609   7.211  -4.313  0.00  0.00    +0.002 C 
ATOM     30  C   UNL     1      -1.569   6.287  -4.897  0.00  0.00    +0.023 C 
ENDBRANCH   4  26
BRANCH   1  32
ATOM     31  C   UNL     1       1.879   8.284   0.243  0.00  0.00    +0.077 C 
ATOM     32  C   UNL     1       1.504   6.875  -0.073  0.00  0.00    +0.178 C 
ATOM     33  O   UNL     1       0.625   6.363   0.682  0.00  0.00    -0.291 OA
ENDBRANCH   1  32
TORSDOF 4
ENDMDL
MODEL 4
REMARK VINA RESULT:     -10.0      3.880      9.075
REMARK  Name = 
REMARK  4 active torsions:
REMARK  status: ('A' for Active; 'I' for Inactive)
REMARK    1  A    between atoms: C_2  and  C_4
REMARK    2  A    between atoms: N_11  and  C_12
REMARK    3  A    between atoms: C_15  and  N_16
REMARK    4  A    between atoms: N_26  and  C_27
REMARK                            x       y       z     vdW  Elec       q    Type
REMARK                         _______ _______ _______ _____ _____    ______ ____
ROOT
ATOM      1  C   UNL     1       2.058   5.894 -12.294  0.00  0.00    +0.087 A 
ATOM      2  C   UNL     1       3.413   6.057 -12.064  0.00  0.00    +0.264 A 
ATOM      3  O   UNL     1       4.069   6.737 -12.911  0.00  0.00    -0.267 OA
ATOM      4  N   UNL     1       3.990   5.701 -10.913  0.00  0.00    -0.282 N 
ATOM      5  C   UNL     1       3.247   5.223  -9.887  0.00  0.00    +0.150 A 
ATOM      6  C   UNL     1       1.877   5.380 -10.007  0.00  0.00    +0.050 A 
ATOM      7  C   UNL     1       1.071   4.996  -8.956  0.00  0.00    +0.105 A 
ATOM      8  N   UNL     1       1.672   4.863  -7.756  0.00  0.00    -0.210 NA
ATOM      9  C   UNL     1       3.002   4.604  -7.690  0.00  0.00    +0.244 A 
ATOM     10  N   UNL     1       3.552   4.633  -6.368  0.00  0.00    -0.159 NA
ATOM     11  N   UNL     1       3.813   4.730  -8.759  0.00  0.00    -0.195 NA
ATOM     12  C   UNL     1       1.253   5.557 -11.224  0.00  0.00    -0.010 A 
ATOM     13  C   UNL     1      -0.121   5.040 -11.448  0.00  0.00    +0.031 C 
ENDROOT
BRANCH  10  14
ATOM     14  C   UNL     1       3.219   5.797  -5.603  0.00  0.00    +0.155 A 
ATOM     15  N   UNL     1       2.009   5.948  -5.016  0.00  0.00    -0.226 NA
ATOM     16  C   UNL     1       1.928   6.470  -3.768  0.00  0.00    +0.115 A 
ATOM     17  C   UNL     1       3.026   7.088  -3.182  0.00  0.00    +0.067 A 
ATOM     18  C   UNL     1       4.065   7.381  -4.054  0.00  0.00    +0.019 A 
ATOM     19  C   UNL     1       4.148   6.779  -5.304  0.00  0.00    +0.037 A 
BRANCH  17  20
ATOM     20  N   UNL     1       3.222   6.997  -1.767  0.00  0.00    -0.303 N 
ATOM     21  C   UNL     1       2.135   7.120  -0.829  0.00  0.00    +0.110 C 
ATOM     22  C   UNL     1       2.580   7.609   0.520  0.00  0.00    +0.110 C 
ATOM     23  N   UNL     1       3.819   7.018   0.965  0.00  0.00    -0.214 NA
ATOM     24  C   UNL     1       4.862   7.090  -0.031  0.00  0.00    +0.110 C 
ATOM     25  C   UNL     1       4.457   6.383  -1.300  0.00  0.00    +0.110 C 
ENDBRANCH  17  20
ENDBRANCH  10  14
BRANCH   4  26
ATOM     26  C   UNL     1       5.396   5.348 -10.920  0.00  0.00    +0.090 C 
ATOM     27  C   UNL     1       5.930   5.386 -12.323  0.00  0.00    +0.023 C 
ATOM     28  C   UNL     1       6.959   6.479 -12.385  0.00  0.00    +0.002 C 
ATOM     29  C   UNL     1       6.821   7.301 -11.135  0.00  0.00    +0.002 C 
ATOM     30  C   UNL     1       6.119   6.416 -10.135  0.00  0.00    +0.023 C 
ENDBRANCH   4  26
BRANCH   1  32
ATOM     31  C   UNL     1       0.995   7.332 -14.077  0.00  0.00    +0.077 C 
ATOM     32  C   UNL     1       1.513   6.005 -13.633  0.00  0.00    +0.178 C 
ATOM     33  O   UNL     1       2.070   5.309 -14.534  0.00  0.00    -0.291 OA
ENDBRANCH   1  32
TORSDOF 4
ENDMDL
MODEL 5
REMARK VINA RESULT:      -9.7      1.512      2.115
REMARK  Name = 
REMARK  4 active torsions:
REMARK  status: ('A' for Active; 'I' for Inactive)
REMARK    1  A    between atoms: C_2  and  C_4
REMARK    2  A    between atoms: N_11  and  C_12
REMARK    3  A    between atoms: C_15  and  N_16
REMARK    4  A    between atoms: N_26  and  C_27
REMARK                            x       y       z     vdW  Elec       q    Type
REMARK                         _______ _______ _______ _____ _____    ______ ____
ROOT
ATOM      1  C   UNL     1      -0.793   5.657  -2.956  0.00  0.00    +0.087 A 
ATOM      2  C   UNL     1       0.350   5.164  -2.351  0.00  0.00    +0.264 A 
ATOM      3  O   UNL     1       0.197   4.300  -1.434  0.00  0.00    -0.267 OA
ATOM      4  N   UNL     1       1.573   5.414  -2.826  0.00  0.00    -0.282 N 
ATOM      5  C   UNL     1       1.739   6.113  -3.972  0.00  0.00    +0.150 A 
ATOM      6  C   UNL     1       0.600   6.307  -4.735  0.00  0.00    +0.050 A 
ATOM      7  C   UNL     1       0.718   6.933  -5.957  0.00  0.00    +0.105 A 
ATOM      8  N   UNL     1       1.953   6.964  -6.499  0.00  0.00    -0.210 NA
ATOM      9  C   UNL     1       3.045   6.877  -5.700  0.00  0.00    +0.244 A 
ATOM     10  N   UNL     1       4.290   6.770  -6.399  0.00  0.00    -0.159 NA
ATOM     11  N   UNL     1       2.964   6.497  -4.409  0.00  0.00    -0.195 NA
ATOM     12  C   UNL     1      -0.670   6.239  -4.201  0.00  0.00    -0.010 A 
ATOM     13  C   UNL     1      -1.764   7.080  -4.752  0.00  0.00    +0.031 C 
ENDROOT
BRANCH  10  14
ATOM     14  C   UNL     1       4.322   5.767  -7.421  0.00  0.00    +0.155 A 
ATOM     15  N   UNL     1       3.238   5.018  -7.725  0.00  0.00    -0.226 NA
ATOM     16  C   UNL     1       2.951   4.744  -9.021  0.00  0.00    +0.115 A 
ATOM     17  C   UNL     1       3.880   4.996 -10.024  0.00  0.00    +0.067 A 
ATOM     18  C   UNL     1       5.169   5.251  -9.575  0.00  0.00    +0.019 A 
ATOM     19  C   UNL     1       5.416   5.588  -8.250  0.00  0.00    +0.037 A 
BRANCH  17  20
ATOM     20  N   UNL     1       3.433   5.397 -11.323  0.00  0.00    -0.303 N 
ATOM     21  C   UNL     1       2.104   5.901 -11.558  0.00  0.00    +0.110 C 
ATOM     22  C   UNL     1       1.636   5.678 -12.969  0.00  0.00    +0.110 C 
ATOM     23  N   UNL     1       2.658   5.922 -13.958  0.00  0.00    -0.214 NA
ATOM     24  C   UNL     1       3.896   5.241 -13.663  0.00  0.00    +0.110 C 
ATOM     25  C   UNL     1       4.452   5.670 -12.328  0.00  0.00    +0.110 C 
ENDBRANCH  17  20
ENDBRANCH  10  14
BRANCH   4  26
ATOM     26  C   UNL     1       2.694   5.394  -1.906  0.00  0.00    +0.090 C 
ATOM     27  C   UNL     1       3.923   5.935  -2.579  0.00  0.00    +0.023 C 
ATOM     28  C   UNL     1       4.308   7.200  -1.866  0.00  0.00    +0.002 C 
ATOM     29  C   UNL     1       3.154   7.593  -0.988  0.00  0.00    +0.002 C 
ATOM     30  C   UNL     1       2.350   6.334  -0.777  0.00  0.00    +0.023 C 
ENDBRANCH   4  26
BRANCH   1  32
ATOM     31  C   UNL     1      -2.610   6.909  -1.727  0.00  0.00    +0.077 C 
ATOM     32  C   UNL     1      -2.069   5.627  -2.267  0.00  0.00    +0.178 C 
ATOM     33  O   UNL     1      -2.935   4.813  -2.705  0.00  0.00    -0.291 OA
ENDBRANCH   1  32
TORSDOF 4
ENDMDL
MODEL 6
REMARK VINA RESULT:      -9.7      3.799      9.806
REMARK  Name = 
REMARK  4 active torsions:
REMARK  status: ('A' for Active; 'I' for Inactive)
REMARK    1  A    between atoms: C_2  and  C_4
REMARK    2  A    between atoms: N_11  and  C_12
REMARK    3  A    between atoms: C_15  and  N_16
REMARK    4  A    between atoms: N_26  and  C_27
REMARK                            x       y       z     vdW  Elec       q    Type
REMARK                         _______ _______ _______ _____ _____    ______ ____
ROOT
ATOM      1  C   UNL     1       5.696   5.406 -12.233  0.00  0.00    +0.087 A 
ATOM      2  C   UNL     1       4.434   5.230 -12.775  0.00  0.00    +0.264 A 
ATOM      3  O   UNL     1       4.337   4.477 -13.792  0.00  0.00    -0.267 OA
ATOM      4  N   UNL     1       3.327   5.655 -12.159  0.00  0.00    -0.282 N 
ATOM      5  C   UNL     1       3.394   6.221 -10.932  0.00  0.00    +0.150 A 
ATOM      6  C   UNL     1       4.601   6.086 -10.267  0.00  0.00    +0.050 A 
ATOM      7  C   UNL     1       4.704   6.563  -8.977  0.00  0.00    +0.105 A 
ATOM      8  N   UNL     1       3.546   6.768  -8.318  0.00  0.00    -0.210 NA
ATOM      9  C   UNL     1       2.405   7.001  -9.013  0.00  0.00    +0.244 A 
ATOM     10  N   UNL     1       1.218   7.055  -8.212  0.00  0.00    -0.159 NA
ATOM     11  N   UNL     1       2.311   6.781 -10.339  0.00  0.00    -0.195 NA
ATOM     12  C   UNL     1       5.787   5.837 -10.925  0.00  0.00    -0.010 A 
ATOM     13  C   UNL     1       7.069   6.368 -10.394  0.00  0.00    +0.031 C 
ENDROOT
BRANCH  10  14
ATOM     14  C   UNL     1       1.052   5.955  -7.308  0.00  0.00    +0.155 A 
ATOM     15  N   UNL     1       2.075   5.130  -6.988  0.00  0.00    -0.226 NA
ATOM     16  C   UNL     1       2.227   4.713  -5.707  0.00  0.00    +0.115 A 
ATOM     17  C   UNL     1       1.217   4.905  -4.772  0.00  0.00    +0.067 A 
ATOM     18  C   UNL     1      -0.013   5.264  -5.306  0.00  0.00    +0.019 A 
ATOM     19  C   UNL     1      -0.121   5.745  -6.605  0.00  0.00    +0.037 A 
BRANCH  17  20
ATOM     20  N   UNL     1       1.554   5.150  -3.403  0.00  0.00    -0.303 N 
ATOM     21  C   UNL     1       2.901   5.436  -2.980  0.00  0.00    +0.110 C 
ATOM     22  C   UNL     1       3.158   5.056  -1.550  0.00  0.00    +0.110 C 
ATOM     23  N   UNL     1       2.067   5.384  -0.664  0.00  0.00    -0.214 NA
ATOM     24  C   UNL     1       0.791   4.914  -1.150  0.00  0.00    +0.110 C 
ATOM     25  C   UNL     1       0.468   5.506  -2.499  0.00  0.00    +0.110 C 
ENDBRANCH  17  20
ENDBRANCH  10  14
BRANCH   4  26
ATOM     26  C   UNL     1       2.164   5.974 -12.963  0.00  0.00    +0.090 C 
ATOM     27  C   UNL     1       2.105   5.075 -14.165  0.00  0.00    +0.023 C 
ATOM     28  C   UNL     1       0.871   4.229 -14.036  0.00  0.00    +0.002 C 
ATOM     29  C   UNL     1       0.364   4.381 -12.629  0.00  0.00    +0.002 C 
ATOM     30  C   UNL     1       0.951   5.673 -12.117  0.00  0.00    +0.023 C 
ENDBRANCH   4  26
BRANCH   1  32
ATOM     31  C   UNL     1       7.356   6.349 -13.887  0.00  0.00    +0.077 C 
ATOM     32  C   UNL     1       6.884   5.213 -13.042  0.00  0.00    +0.178 C 
ATOM     33  O   UNL     1       7.797   4.486 -12.548  0.00  0.00    -0.291 OA
ENDBRANCH   1  32
TORSDOF 4
ENDMDL
MODEL 7
REMARK VINA RESULT:      -9.7      3.748     10.072
REMARK  Name = 
REMARK  4 active torsions:
REMARK  status: ('A' for Active; 'I' for Inactive)
REMARK    1  A    between atoms: C_2  and  C_4
REMARK    2  A    between atoms: N_11  and  C_12
REMARK    3  A    between atoms: C_15  and  N_16
REMARK    4  A    between atoms: N_26  and  C_27
REMARK                            x       y       z     vdW  Elec       q    Type
REMARK                         _______ _______ _______ _____ _____    ______ ____
ROOT
ATOM      1  C   UNL     1       5.742   5.413 -11.943  0.00  0.00    +0.087 A 
ATOM      2  C   UNL     1       4.476   5.356 -12.503  0.00  0.00    +0.264 A 
ATOM      3  O   UNL     1       4.331   4.638 -13.539  0.00  0.00    -0.267 OA
ATOM      4  N   UNL     1       3.401   5.857 -11.889  0.00  0.00    -0.282 N 
ATOM      5  C   UNL     1       3.499   6.386 -10.647  0.00  0.00    +0.150 A 
ATOM      6  C   UNL     1       4.682   6.135  -9.972  0.00  0.00    +0.050 A 
ATOM      7  C   UNL     1       4.807   6.570  -8.670  0.00  0.00    +0.105 A 
ATOM      8  N   UNL     1       3.661   6.856  -8.019  0.00  0.00    -0.210 NA
ATOM      9  C   UNL     1       2.553   7.200  -8.720  0.00  0.00    +0.244 A 
ATOM     10  N   UNL     1       1.364   7.333  -7.932  0.00  0.00    -0.159 NA
ATOM     11  N   UNL     1       2.459   7.020 -10.053  0.00  0.00    -0.195 NA
ATOM     12  C   UNL     1       5.851   5.803 -10.623  0.00  0.00    -0.010 A 
ATOM     13  C   UNL     1       7.165   6.212 -10.065  0.00  0.00    +0.031 C 
ENDROOT
BRANCH  10  14
ATOM     14  C   UNL     1       1.095   6.230  -7.057  0.00  0.00    +0.155 A 
ATOM     15  N   UNL     1       1.844   5.988  -5.957  0.00  0.00    -0.226 NA
ATOM     16  C   UNL     1       1.242   5.607  -4.804  0.00  0.00    +0.115 A 
ATOM     17  C   UNL     1      -0.090   5.213  -4.793  0.00  0.00    +0.067 A 
ATOM     18  C   UNL     1      -0.635   4.963  -6.046  0.00  0.00    +0.019 A 
ATOM     19  C   UNL     1      -0.020   5.423  -7.204  0.00  0.00    +0.037 A 
BRANCH  17  20
ATOM     20  N   UNL     1      -0.905   5.492  -3.650  0.00  0.00    -0.303 N 
ATOM     21  C   UNL     1      -2.343   5.406  -3.691  0.00  0.00    +0.110 C 
ATOM     22  C   UNL     1      -3.009   6.288  -2.673  0.00  0.00    +0.110 C 
ATOM     23  N   UNL     1      -2.348   6.286  -1.391  0.00  0.00    -0.214 NA
ATOM     24  C   UNL     1      -0.927   6.521  -1.494  0.00  0.00    +0.110 C 
ATOM     25  C   UNL     1      -0.259   5.471  -2.345  0.00  0.00    +0.110 C 
ENDBRANCH  17  20
ENDBRANCH  10  14
BRANCH   4  26
ATOM     26  C   UNL     1       2.279   6.292 -12.697  0.00  0.00    +0.090 C 
ATOM     27  C   UNL     1       2.369   5.690 -14.071  0.00  0.00    +0.023 C 
ATOM     28  C   UNL     1       1.191   4.775 -14.241  0.00  0.00    +0.002 C 
ATOM     29  C   UNL     1       0.575   4.574 -12.885  0.00  0.00    +0.002 C 
ATOM     30  C   UNL     1       1.032   5.742 -12.047  0.00  0.00    +0.023 C 
ENDBRANCH   4  26
BRANCH   1  32
ATOM     31  C   UNL     1       7.422   6.214 -13.649  0.00  0.00    +0.077 C 
ATOM     32  C   UNL     1       6.920   5.140 -12.742  0.00  0.00    +0.178 C 
ATOM     33  O   UNL     1       7.813   4.413 -12.213  0.00  0.00    -0.291 OA
ENDBRANCH   1  32
TORSDOF 4
ENDMDL
MODEL 8
REMARK VINA RESULT:      -9.7      2.806      5.026
REMARK  Name = 
REMARK  4 active torsions:
REMARK  status: ('A' for Active; 'I' for Inactive)
REMARK    1  A    between atoms: C_2  and  C_4
REMARK    2  A    between atoms: N_11  and  C_12
REMARK    3  A    between atoms: C_15  and  N_16
REMARK    4  A    between atoms: N_26  and  C_27
REMARK                            x       y       z     vdW  Elec       q    Type
REMARK                         _______ _______ _______ _____ _____    ______ ____
ROOT
ATOM      1  C   UNL     1       2.240   7.634   0.254  0.00  0.00    +0.087 A 
ATOM      2  C   UNL     1       1.018   7.262  -0.281  0.00  0.00    +0.264 A 
ATOM      3  O   UNL     1      -0.017   7.833   0.180  0.00  0.00    -0.267 OA
ATOM      4  N   UNL     1       0.920   6.494  -1.369  0.00  0.00    -0.282 N 
ATOM      5  C   UNL     1       2.028   6.100  -2.039  0.00  0.00    +0.150 A 
ATOM      6  C   UNL     1       3.204   6.746  -1.698  0.00  0.00    +0.050 A 
ATOM      7  C   UNL     1       4.350   6.454  -2.406  0.00  0.00    +0.105 A 
ATOM      8  N   UNL     1       4.180   5.871  -3.610  0.00  0.00    -0.210 NA
ATOM      9  C   UNL     1       3.055   5.157  -3.863  0.00  0.00    +0.244 A 
ATOM     10  N   UNL     1       2.921   4.714  -5.218  0.00  0.00    -0.159 NA
ATOM     11  N   UNL     1       1.971   5.215  -3.064  0.00  0.00    -0.195 NA
ATOM     12  C   UNL     1       3.377   7.381  -0.486  0.00  0.00    -0.010 A 
ATOM     13  C   UNL     1       4.718   7.435   0.151  0.00  0.00    +0.031 C 
ENDROOT
BRANCH  10  14
ATOM     14  C   UNL     1       3.114   5.732  -6.207  0.00  0.00    +0.155 A 
ATOM     15  N   UNL     1       4.074   5.638  -7.155  0.00  0.00    -0.226 NA
ATOM     16  C   UNL     1       3.802   6.015  -8.428  0.00  0.00    +0.115 A 
ATOM     17  C   UNL     1       2.650   6.732  -8.727  0.00  0.00    +0.067 A 
ATOM     18  C   UNL     1       1.992   7.265  -7.626  0.00  0.00    +0.019 A 
ATOM     19  C   UNL     1       2.255   6.809  -6.340  0.00  0.00    +0.037 A 
BRANCH  17  20
ATOM     20  N   UNL     1       1.993   6.532  -9.983  0.00  0.00    -0.303 N 
ATOM     21  C   UNL     1       2.677   5.994 -11.132  0.00  0.00    +0.110 C 
ATOM     22  C   UNL     1       2.061   6.425 -12.432  0.00  0.00    +0.110 C 
ATOM     23  N   UNL     1       0.618   6.418 -12.415  0.00  0.00    -0.214 NA
ATOM     24  C   UNL     1       0.069   7.115 -11.275  0.00  0.00    +0.110 C 
ATOM     25  C   UNL     1       0.537   6.499  -9.980  0.00  0.00    +0.110 C 
ENDBRANCH  17  20
ENDBRANCH  10  14
BRANCH   4  26
ATOM     26  C   UNL     1      -0.270   5.683  -1.543  0.00  0.00    +0.090 C 
ATOM     27  C   UNL     1      -1.306   6.064  -0.523  0.00  0.00    +0.023 C 
ATOM     28  C   UNL     1      -2.480   6.636  -1.265  0.00  0.00    +0.002 C 
ATOM     29  C   UNL     1      -2.038   6.898  -2.678  0.00  0.00    +0.002 C 
ATOM     30  C   UNL     1      -0.833   6.018  -2.902  0.00  0.00    +0.023 C 
ENDBRANCH   4  26
BRANCH   1  32
ATOM     31  C   UNL     1       2.139   9.681   1.730  0.00  0.00    +0.077 C 
ATOM     32  C   UNL     1       2.324   8.207   1.583  0.00  0.00    +0.178 C 
ATOM     33  O   UNL     1       1.875   7.504   2.537  0.00  0.00    -0.291 OA
ENDBRANCH   1  32
TORSDOF 4
ENDMDL
MODEL 9
REMARK VINA RESULT:      -9.5      3.924      7.051
REMARK  Name = 
REMARK  4 active torsions:
REMARK  status: ('A' for Active; 'I' for Inactive)
REMARK    1  A    between atoms: C_2  and  C_4
REMARK    2  A    between atoms: N_11  and  C_12
REMARK    3  A    between atoms: C_15  and  N_16
REMARK    4  A    between atoms: N_26  and  C_27
REMARK                            x       y       z     vdW  Elec       q    Type
REMARK                         _______ _______ _______ _____ _____    ______ ____
ROOT
ATOM      1  C   UNL     1       2.719   7.433   0.683  0.00  0.00    +0.087 A 
ATOM      2  C   UNL     1       1.551   8.004   1.159  0.00  0.00    +0.264 A 
ATOM      3  O   UNL     1       1.655   9.094   1.798  0.00  0.00    -0.267 OA
ATOM      4  N   UNL     1       0.342   7.559   0.803  0.00  0.00    -0.282 N 
ATOM      5  C   UNL     1       0.212   6.562  -0.102  0.00  0.00    +0.150 A 
ATOM      6  C   UNL     1       1.356   6.235  -0.812  0.00  0.00    +0.050 A 
ATOM      7  C   UNL     1       1.267   5.290  -1.812  0.00  0.00    +0.105 A 
ATOM      8  N   UNL     1       0.033   5.036  -2.292  0.00  0.00    -0.210 NA
ATOM      9  C   UNL     1      -1.056   5.274  -1.518  0.00  0.00    +0.244 A 
ATOM     10  N   UNL     1      -2.311   5.109  -2.187  0.00  0.00    -0.159 NA
ATOM     11  N   UNL     1      -0.988   6.000  -0.384  0.00  0.00    -0.195 NA
ATOM     12  C   UNL     1       2.623   6.524  -0.352  0.00  0.00    -0.010 A 
ATOM     13  C   UNL     1       3.764   5.631  -0.679  0.00  0.00    +0.031 C 
ENDROOT
BRANCH  10  14
ATOM     14  C   UNL     1      -2.418   5.787  -3.444  0.00  0.00    +0.155 A 
ATOM     15  N   UNL     1      -1.936   7.038  -3.627  0.00  0.00    -0.226 NA
ATOM     16  C   UNL     1      -1.293   7.349  -4.779  0.00  0.00    +0.115 A 
ATOM     17  C   UNL     1      -1.341   6.495  -5.874  0.00  0.00    +0.067 A 
ATOM     18  C   UNL     1      -2.304   5.498  -5.795  0.00  0.00    +0.019 A 
ATOM     19  C   UNL     1      -2.899   5.165  -4.584  0.00  0.00    +0.037 A 
BRANCH  17  20
ATOM     20  N   UNL     1      -0.213   6.395  -6.748  0.00  0.00    -0.303 N 
ATOM     21  C   UNL     1       1.078   6.937  -6.405  0.00  0.00    +0.110 C 
ATOM     22  C   UNL     1       1.904   7.286  -7.610  0.00  0.00    +0.110 C 
ATOM     23  N   UNL     1       1.819   6.307  -8.668  0.00  0.00    -0.214 NA
ATOM     24  C   UNL     1       0.458   5.961  -9.001  0.00  0.00    +0.110 C 
ATOM     25  C   UNL     1      -0.271   5.397  -7.807  0.00  0.00    +0.110 C 
ENDBRANCH  17  20
ENDBRANCH  10  14
BRANCH   4  26
ATOM     26  C   UNL     1      -0.769   7.765   1.712  0.00  0.00    +0.090 C 
ATOM     27  C   UNL     1      -0.265   8.259   3.038  0.00  0.00    +0.023 C 
ATOM     28  C   UNL     1      -0.803   9.647   3.235  0.00  0.00    +0.002 C 
ATOM     29  C   UNL     1      -1.353  10.111   1.916  0.00  0.00    +0.002 C 
ATOM     30  C   UNL     1      -1.622   8.859   1.119  0.00  0.00    +0.023 C 
ENDBRANCH   4  26
BRANCH   1  32
ATOM     31  C   UNL     1       4.550   9.106   1.155  0.00  0.00    +0.077 C 
ATOM     32  C   UNL     1       3.996   7.728   1.303  0.00  0.00    +0.178 C 
ATOM     33  O   UNL     1       4.238   7.160   2.409  0.00  0.00    -0.291 OA
ENDBRANCH   1  32
TORSDOF 4
ENDMDL
