MODEL 1
REMARK VINA RESULT:      -9.6      0.000      0.000
REMARK  Name = 
REMARK  6 active torsions:
REMARK  status: ('A' for Active; 'I' for Inactive)
REMARK    1  A    between atoms: C_2  and  N_3
REMARK    2  A    between atoms: N_6  and  C_7
REMARK    3  A    between atoms: C_7  and  C_8
REMARK    4  A    between atoms: C_11  and  N_12
REMARK    5  A    between atoms: C_18  and  C_19
REMARK    6  A    between atoms: N_26  and  C_27
REMARK                            x       y       z     vdW  Elec       q    Type
REMARK                         _______ _______ _______ _____ _____    ______ ____
ROOT
ATOM      1  N   UNL     1      -0.240   6.330 -10.191  0.00  0.00    -0.159 NA
ATOM      2  C   UNL     1       0.758   5.927  -9.254  0.00  0.00    +0.242 A 
ATOM      3  N   UNL     1       0.669   6.411  -8.010  0.00  0.00    -0.210 NA
ATOM      4  C   UNL     1       1.717   6.459  -7.149  0.00  0.00    +0.113 A 
ATOM      5  C   UNL     1       2.795   5.643  -7.463  0.00  0.00    +0.177 A 
ATOM      6  F   UNL     1       3.970   5.967  -6.851  0.00  0.00    -0.201 F 
ATOM      7  C   UNL     1       2.873   5.131  -8.750  0.00  0.00    +0.133 A 
ATOM      8  N   UNL     1       1.817   5.189  -9.593  0.00  0.00    -0.208 NA
ENDROOT
BRANCH   4   9
ATOM      9  C   UNL     1       1.457   6.669  -5.719  0.00  0.00    +0.024 A 
ATOM     10  C   UNL     1       0.289   6.200  -5.138  0.00  0.00    +0.033 A 
ATOM     11  C   UNL     1       0.220   5.823  -3.805  0.00  0.00    +0.159 A 
ATOM     12  F   UNL     1      -0.880   5.201  -3.303  0.00  0.00    -0.203 F 
ATOM     13  C   UNL     1       1.425   5.625  -3.139  0.00  0.00    +0.126 A 
ATOM     14  N   UNL     1       1.819   4.919  -2.064  0.00  0.00    -0.229 NA
ATOM     15  C   UNL     1       3.125   5.221  -1.863  0.00  0.00    +0.121 A 
ATOM     16  N   UNL     1       3.399   6.331  -2.589  0.00  0.00    -0.317 N 
ATOM     17  C   UNL     1       4.132   4.443  -1.079  0.00  0.00    +0.072 C 
ATOM     18  C   UNL     1       2.460   6.452  -3.559  0.00  0.00    +0.081 A 
ATOM     19  C   UNL     1       2.467   7.016  -4.829  0.00  0.00    +0.020 A 
BRANCH  16  20
ATOM     20  C   UNL     1       4.480   7.278  -2.373  0.00  0.00    +0.087 C 
ATOM     21  C   UNL     1       5.266   7.550  -3.624  0.00  0.00    +0.025 C 
ATOM     22  C   UNL     1       3.874   8.598  -1.911  0.00  0.00    +0.025 C 
ENDBRANCH  16  20
ENDBRANCH   4   9
BRANCH   1  26
ATOM     23  C   UNL     1       1.879   5.502 -13.514  0.00  0.00    +0.013 A 
ATOM     24  C   UNL     1       1.084   4.492 -12.998  0.00  0.00    +0.097 A 
ATOM     25  N   UNL     1       0.179   4.801 -12.043  0.00  0.00    -0.228 NA
ATOM     26  C   UNL     1       0.017   6.062 -11.576  0.00  0.00    +0.155 A 
ATOM     27  C   UNL     1       0.533   7.070 -12.381  0.00  0.00    +0.036 A 
ATOM     28  C   UNL     1       1.339   6.780 -13.473  0.00  0.00    +0.002 A 
BRANCH  23  29
ATOM     29  C   UNL     1       3.182   5.236 -14.180  0.00  0.00    +0.101 C 
BRANCH  29  33
ATOM     30  N   UNL     1       6.484   6.594 -12.266  0.00  0.00    -0.270 NA
ATOM     31  C   UNL     1       6.027   5.231 -12.097  0.00  0.00    +0.090 C 
ATOM     32  C   UNL     1       4.527   5.246 -12.290  0.00  0.00    +0.090 C 
ATOM     33  N   UNL     1       4.162   6.046 -13.458  0.00  0.00    -0.266 NA
ATOM     34  C   UNL     1       5.314   6.158 -14.350  0.00  0.00    +0.090 C 
ATOM     35  C   UNL     1       6.435   6.927 -13.668  0.00  0.00    +0.090 C 
BRANCH  30  37
ATOM     36  C   UNL     1       8.760   5.850 -12.306  0.00  0.00    +0.019 C 
ATOM     37  C   UNL     1       7.780   6.797 -11.671  0.00  0.00    +0.072 C 
ENDBRANCH  30  37
ENDBRANCH  29  33
ENDBRANCH  23  29
ENDBRANCH   1  26
TORSDOF 6
ENDMDL
MODEL 2
REMARK VINA RESULT:      -9.3      2.569     10.110
REMARK  Name = 
REMARK  6 active torsions:
REMARK  status: ('A' for Active; 'I' for Inactive)
REMARK    1  A    between atoms: C_2  and  N_3
REMARK    2  A    between atoms: N_6  and  C_7
REMARK    3  A    between atoms: C_7  and  C_8
REMARK    4  A    between atoms: C_11  and  N_12
REMARK    5  A    between atoms: C_18  and  C_19
REMARK    6  A    between atoms: N_26  and  C_27
REMARK                            x       y       z     vdW  Elec       q    Type
REMARK                         _______ _______ _______ _____ _____    ______ ____
ROOT
ATOM      1  N   UNL     1       5.003   6.943  -3.753  0.00  0.00    -0.159 NA
ATOM      2  C   UNL     1       4.054   6.100  -4.406  0.00  0.00    +0.242 A 
ATOM      3  N   UNL     1       4.138   5.990  -5.736  0.00  0.00    -0.210 NA
ATOM      4  C   UNL     1       3.108   5.581  -6.519  0.00  0.00    +0.113 A 
ATOM      5  C   UNL     1       2.079   4.915  -5.867  0.00  0.00    +0.177 A 
ATOM      6  F   UNL     1       0.900   4.854  -6.547  0.00  0.00    -0.201 F 
ATOM      7  C   UNL     1       2.008   5.019  -4.485  0.00  0.00    +0.133 A 
ATOM      8  N   UNL     1       3.039   5.516  -3.765  0.00  0.00    -0.208 NA
ENDROOT
BRANCH   4   9
ATOM      9  C   UNL     1       3.384   5.155  -7.897  0.00  0.00    +0.024 A 
ATOM     10  C   UNL     1       2.359   5.065  -8.826  0.00  0.00    +0.033 A 
ATOM     11  C   UNL     1       2.566   5.260 -10.184  0.00  0.00    +0.159 A 
ATOM     12  F   UNL     1       1.523   5.345 -11.052  0.00  0.00    -0.203 F 
ATOM     13  C   UNL     1       3.762   5.859 -10.563  0.00  0.00    +0.126 A 
ATOM     14  N   UNL     1       4.184   6.562 -11.630  0.00  0.00    -0.229 NA
ATOM     15  C   UNL     1       5.508   6.786 -11.443  0.00  0.00    +0.121 A 
ATOM     16  N   UNL     1       5.926   5.949 -10.464  0.00  0.00    -0.317 N 
ATOM     17  C   UNL     1       6.359   7.825 -12.099  0.00  0.00    +0.072 C 
ATOM     18  C   UNL     1       4.845   5.554  -9.747  0.00  0.00    +0.081 A 
ATOM     19  C   UNL     1       4.669   5.158  -8.427  0.00  0.00    +0.020 A 
BRANCH  16  20
ATOM     20  C   UNL     1       7.284   5.494 -10.217  0.00  0.00    +0.087 C 
ATOM     21  C   UNL     1       8.057   5.275 -11.487  0.00  0.00    +0.025 C 
ATOM     22  C   UNL     1       8.009   6.568  -9.414  0.00  0.00    +0.025 C 
ENDBRANCH  16  20
ENDBRANCH   4   9
BRANCH   1  26
ATOM     23  C   UNL     1       2.929   7.320  -0.321  0.00  0.00    +0.013 A 
ATOM     24  C   UNL     1       3.943   6.377  -0.352  0.00  0.00    +0.097 A 
ATOM     25  N   UNL     1       4.812   6.391  -1.385  0.00  0.00    -0.228 NA
ATOM     26  C   UNL     1       4.734   7.297  -2.389  0.00  0.00    +0.155 A 
ATOM     27  C   UNL     1       3.978   8.430  -2.116  0.00  0.00    +0.036 A 
ATOM     28  C   UNL     1       3.193   8.515  -0.974  0.00  0.00    +0.002 A 
BRANCH  23  29
ATOM     29  C   UNL     1       1.675   7.127   0.457  0.00  0.00    +0.101 C 
BRANCH  29  33
ATOM     30  N   UNL     1      -1.759   6.818  -1.670  0.00  0.00    -0.270 NA
ATOM     31  C   UNL     1      -1.060   5.640  -1.200  0.00  0.00    +0.090 C 
ATOM     32  C   UNL     1       0.407   6.003  -1.127  0.00  0.00    +0.090 C 
ATOM     33  N   UNL     1       0.588   7.312  -0.503  0.00  0.00    -0.266 NA
ATOM     34  C   UNL     1      -0.591   7.636   0.297  0.00  0.00    +0.090 C 
ATOM     35  C   UNL     1      -1.811   7.782  -0.599  0.00  0.00    +0.090 C 
BRANCH  30  37
ATOM     36  C   UNL     1      -2.898   5.344  -3.173  0.00  0.00    +0.019 C 
ATOM     37  C   UNL     1      -3.052   6.486  -2.210  0.00  0.00    +0.072 C 
ENDBRANCH  30  37
ENDBRANCH  29  33
ENDBRANCH  23  29
ENDBRANCH   1  26
TORSDOF 6
ENDMDL
MODEL 3
REMARK VINA RESULT:      -9.2      2.178      3.137
REMARK  Name = 
REMARK  6 active torsions:
REMARK  status: ('A' for Active; 'I' for Inactive)
REMARK    1  A    between atoms: C_2  and  N_3
REMARK    2  A    between atoms: N_6  and  C_7
REMARK    3  A    between atoms: C_7  and  C_8
REMARK    4  A    between atoms: C_11  and  N_12
REMARK    5  A    between atoms: C_18  and  C_19
REMARK    6  A    between atoms: N_26  and  C_27
REMARK                            x       y       z     vdW  Elec       q    Type
REMARK                         _______ _______ _______ _____ _____    ______ ____
ROOT
ATOM      1  N   UNL     1      -0.065   4.988  -8.364  0.00  0.00    -0.159 NA
ATOM      2  C   UNL     1       1.093   5.298  -7.590  0.00  0.00    +0.242 A 
ATOM      3  N   UNL     1       0.986   5.221  -6.259  0.00  0.00    -0.210 NA
ATOM      4  C   UNL     1       1.826   5.854  -5.402  0.00  0.00    +0.113 A 
ATOM      5  C   UNL     1       3.032   6.279  -5.941  0.00  0.00    +0.177 A 
ATOM      6  F   UNL     1       3.690   7.232  -5.221  0.00  0.00    -0.201 F 
ATOM      7  C   UNL     1       3.143   6.342  -7.323  0.00  0.00    +0.133 A 
ATOM      8  N   UNL     1       2.224   5.761  -8.127  0.00  0.00    -0.208 NA
ENDROOT
BRANCH   4   9
ATOM      9  C   UNL     1       1.856   5.439  -3.994  0.00  0.00    +0.024 A 
ATOM     10  C   UNL     1       3.060   5.148  -3.370  0.00  0.00    +0.033 A 
ATOM     11  C   UNL     1       3.257   5.333  -2.010  0.00  0.00    +0.159 A 
ATOM     12  F   UNL     1       4.491   5.212  -1.452  0.00  0.00    -0.203 F 
ATOM     13  C   UNL     1       2.325   6.114  -1.335  0.00  0.00    +0.126 A 
ATOM     14  N   UNL     1       2.328   6.845  -0.205  0.00  0.00    -0.229 NA
ATOM     15  C   UNL     1       1.061   7.296  -0.036  0.00  0.00    +0.121 A 
ATOM     16  N   UNL     1       0.261   6.572  -0.855  0.00  0.00    -0.317 N 
ATOM     17  C   UNL     1       0.605   8.443   0.807  0.00  0.00    +0.072 C 
ATOM     18  C   UNL     1       1.029   6.022  -1.828  0.00  0.00    +0.081 A 
ATOM     19  C   UNL     1       0.778   5.643  -3.141  0.00  0.00    +0.020 A 
BRANCH  16  20
ATOM     20  C   UNL     1      -1.171   6.362  -0.724  0.00  0.00    +0.087 C 
ATOM     21  C   UNL     1      -1.641   6.475   0.698  0.00  0.00    +0.025 C 
ATOM     22  C   UNL     1      -1.888   7.436  -1.535  0.00  0.00    +0.025 C 
ENDBRANCH  16  20
ENDBRANCH   4   9
BRANCH   1  26
ATOM     23  C   UNL     1       1.474   5.953 -11.959  0.00  0.00    +0.013 A 
ATOM     24  C   UNL     1       0.888   4.705 -11.832  0.00  0.00    +0.097 A 
ATOM     25  N   UNL     1       0.151   4.442 -10.731  0.00  0.00    -0.228 NA
ATOM     26  C   UNL     1      -0.043   5.356  -9.750  0.00  0.00    +0.155 A 
ATOM     27  C   UNL     1       0.217   6.675 -10.100  0.00  0.00    +0.036 A 
ATOM     28  C   UNL     1       0.832   6.994 -11.303  0.00  0.00    +0.002 A 
BRANCH  23  29
ATOM     29  C   UNL     1       2.652   6.203 -12.833  0.00  0.00    +0.101 C 
BRANCH  29  33
ATOM     30  N   UNL     1       6.346   5.410 -11.370  0.00  0.00    -0.270 NA
ATOM     31  C   UNL     1       6.156   5.811 -12.749  0.00  0.00    +0.090 C 
ATOM     32  C   UNL     1       4.779   5.335 -13.156  0.00  0.00    +0.090 C 
ATOM     33  N   UNL     1       3.796   5.639 -12.118  0.00  0.00    -0.266 NA
ATOM     34  C   UNL     1       4.301   6.718 -11.272  0.00  0.00    +0.090 C 
ATOM     35  C   UNL     1       5.546   6.263 -10.527  0.00  0.00    +0.090 C 
BRANCH  30  37
ATOM     36  C   UNL     1       8.558   5.746 -12.220  0.00  0.00    +0.019 C 
ATOM     37  C   UNL     1       7.740   5.389 -11.012  0.00  0.00    +0.072 C 
ENDBRANCH  30  37
ENDBRANCH  29  33
ENDBRANCH  23  29
ENDBRANCH   1  26
TORSDOF 6
ENDMDL
MODEL 4
REMARK VINA RESULT:      -9.2      2.611      4.215
REMARK  Name = 
REMARK  6 active torsions:
REMARK  status: ('A' for Active; 'I' for Inactive)
REMARK    1  A    between atoms: C_2  and  N_3
REMARK    2  A    between atoms: N_6  and  C_7
REMARK    3  A    between atoms: C_7  and  C_8
REMARK    4  A    between atoms: C_11  and  N_12
REMARK    5  A    between atoms: C_18  and  C_19
REMARK    6  A    between atoms: N_26  and  C_27
REMARK                            x       y       z     vdW  Elec       q    Type
REMARK                         _______ _______ _______ _____ _____    ______ ____
ROOT
ATOM      1  N   UNL     1       1.965   5.801  -6.758  0.00  0.00    -0.159 NA
ATOM      2  C   UNL     1       1.045   5.883  -5.670  0.00  0.00    +0.242 A 
ATOM      3  N   UNL     1       1.531   5.715  -4.435  0.00  0.00    -0.210 NA
ATOM      4  C   UNL     1       0.765   5.366  -3.371  0.00  0.00    +0.113 A 
ATOM      5  C   UNL     1      -0.602   5.556  -3.521  0.00  0.00    +0.177 A 
ATOM      6  F   UNL     1      -1.386   4.864  -2.647  0.00  0.00    -0.201 F 
ATOM      7  C   UNL     1      -1.097   5.747  -4.802  0.00  0.00    +0.133 A 
ATOM      8  N   UNL     1      -0.273   6.009  -5.841  0.00  0.00    -0.208 NA
ENDROOT
BRANCH   4   9
ATOM      9  C   UNL     1       1.301   5.547  -2.016  0.00  0.00    +0.024 A 
ATOM     10  C   UNL     1       2.632   5.274  -1.741  0.00  0.00    +0.033 A 
ATOM     11  C   UNL     1       3.338   5.936  -0.747  0.00  0.00    +0.159 A 
ATOM     12  F   UNL     1       4.682   5.781  -0.614  0.00  0.00    -0.203 F 
ATOM     13  C   UNL     1       2.775   7.102  -0.240  0.00  0.00    +0.126 A 
ATOM     14  N   UNL     1       3.246   8.201   0.377  0.00  0.00    -0.229 NA
ATOM     15  C   UNL     1       2.165   8.946   0.713  0.00  0.00    +0.121 A 
ATOM     16  N   UNL     1       1.075   8.149   0.604  0.00  0.00    -0.317 N 
ATOM     17  C   UNL     1       2.128  10.402   1.048  0.00  0.00    +0.072 C 
ATOM     18  C   UNL     1       1.386   7.107  -0.205  0.00  0.00    +0.081 A 
ATOM     19  C   UNL     1       0.637   6.302  -1.056  0.00  0.00    +0.020 A 
BRANCH  16  20
ATOM     20  C   UNL     1      -0.211   8.325   1.256  0.00  0.00    +0.087 C 
ATOM     21  C   UNL     1      -1.358   8.287   0.287  0.00  0.00    +0.025 C 
ATOM     22  C   UNL     1      -0.405   7.182   2.247  0.00  0.00    +0.025 C 
ENDBRANCH  16  20
ENDBRANCH   4   9
BRANCH   1  26
ATOM     23  C   UNL     1       1.831   5.847 -10.783  0.00  0.00    +0.013 A 
ATOM     24  C   UNL     1       1.789   4.611 -10.159  0.00  0.00    +0.097 A 
ATOM     25  N   UNL     1       1.584   4.564  -8.825  0.00  0.00    -0.228 NA
ATOM     26  C   UNL     1       1.411   5.679  -8.076  0.00  0.00    +0.155 A 
ATOM     27  C   UNL     1       1.070   6.827  -8.779  0.00  0.00    +0.036 A 
ATOM     28  C   UNL     1       1.114   6.862 -10.166  0.00  0.00    +0.002 A 
BRANCH  23  29
ATOM     29  C   UNL     1       2.501   6.062 -12.094  0.00  0.00    +0.101 C 
BRANCH  29  33
ATOM     30  N   UNL     1       6.437   5.154 -12.411  0.00  0.00    -0.270 NA
ATOM     31  C   UNL     1       5.673   5.590 -13.562  0.00  0.00    +0.090 C 
ATOM     32  C   UNL     1       4.243   5.154 -13.327  0.00  0.00    +0.090 C 
ATOM     33  N   UNL     1       3.825   5.457 -11.960  0.00  0.00    -0.266 NA
ATOM     34  C   UNL     1       4.683   6.505 -11.410  0.00  0.00    +0.090 C 
ATOM     35  C   UNL     1       6.114   6.006 -11.294  0.00  0.00    +0.090 C 
BRANCH  30  37
ATOM     36  C   UNL     1       8.587   5.917 -11.687  0.00  0.00    +0.019 C 
ATOM     37  C   UNL     1       7.846   5.094 -12.702  0.00  0.00    +0.072 C 
ENDBRANCH  30  37
ENDBRANCH  29  33
ENDBRANCH  23  29
ENDBRANCH   1  26
TORSDOF 6
ENDMDL
MODEL 5
REMARK VINA RESULT:      -9.2      3.160      4.749
REMARK  Name = 
REMARK  6 active torsions:
REMARK  status: ('A' for Active; 'I' for Inactive)
REMARK    1  A    between atoms: C_2  and  N_3
REMARK    2  A    between atoms: N_6  and  C_7
REMARK    3  A    between atoms: C_7  and  C_8
REMARK    4  A    between atoms: C_11  and  N_12
REMARK    5  A    between atoms: C_18  and  C_19
REMARK    6  A    between atoms: N_26  and  C_27
REMARK                            x       y       z     vdW  Elec       q    Type
REMARK                         _______ _______ _______ _____ _____    ______ ____
ROOT
ATOM      1  N   UNL     1       1.482   4.484  -5.661  0.00  0.00    -0.159 NA
ATOM      2  C   UNL     1       2.494   5.281  -5.046  0.00  0.00    +0.242 A 
ATOM      3  N   UNL     1       2.387   5.511  -3.732  0.00  0.00    -0.210 NA
ATOM      4  C   UNL     1       3.003   6.541  -3.100  0.00  0.00    +0.113 A 
ATOM      5  C   UNL     1       4.054   7.132  -3.789  0.00  0.00    +0.177 A 
ATOM      6  F   UNL     1       4.408   8.375  -3.357  0.00  0.00    -0.201 F 
ATOM      7  C   UNL     1       4.169   6.876  -5.147  0.00  0.00    +0.133 A 
ATOM      8  N   UNL     1       3.462   5.886  -5.737  0.00  0.00    -0.208 NA
ENDROOT
BRANCH   4   9
ATOM      9  C   UNL     1       3.120   6.513  -1.637  0.00  0.00    +0.024 A 
ATOM     10  C   UNL     1       4.353   6.686  -1.025  0.00  0.00    +0.033 A 
ATOM     11  C   UNL     1       4.485   7.249   0.235  0.00  0.00    +0.159 A 
ATOM     12  F   UNL     1       5.706   7.572   0.740  0.00  0.00    -0.203 F 
ATOM     13  C   UNL     1       3.384   7.928   0.745  0.00  0.00    +0.126 A 
ATOM     14  N   UNL     1       3.197   8.899   1.659  0.00  0.00    -0.229 NA
ATOM     15  C   UNL     1       1.857   9.061   1.777  0.00  0.00    +0.121 A 
ATOM     16  N   UNL     1       1.266   7.985   1.206  0.00  0.00    -0.317 N 
ATOM     17  C   UNL     1       1.126  10.240   2.335  0.00  0.00    +0.072 C 
ATOM     18  C   UNL     1       2.154   7.408   0.359  0.00  0.00    +0.081 A 
ATOM     19  C   UNL     1       2.017   6.662  -0.805  0.00  0.00    +0.020 A 
BRANCH  16  20
ATOM     20  C   UNL     1      -0.071   7.478   1.459  0.00  0.00    +0.087 C 
ATOM     21  C   UNL     1      -0.425   7.492   2.920  0.00  0.00    +0.025 C 
ATOM     22  C   UNL     1      -1.069   8.375   0.734  0.00  0.00    +0.025 C 
ENDBRANCH  16  20
ENDBRANCH   4   9
BRANCH   1  26
ATOM     23  C   UNL     1       2.311   5.612  -9.437  0.00  0.00    +0.013 A 
ATOM     24  C   UNL     1       2.825   4.401  -9.007  0.00  0.00    +0.097 A 
ATOM     25  N   UNL     1       2.372   3.876  -7.848  0.00  0.00    -0.228 NA
ATOM     26  C   UNL     1       1.427   4.488  -7.094  0.00  0.00    +0.155 A 
ATOM     27  C   UNL     1       0.678   5.460  -7.744  0.00  0.00    +0.036 A 
ATOM     28  C   UNL     1       1.024   5.910  -9.011  0.00  0.00    +0.002 A 
BRANCH  23  29
ATOM     29  C   UNL     1       3.032   6.499 -10.390  0.00  0.00    +0.101 C 
BRANCH  29  33
ATOM     30  N   UNL     1       6.528   5.315 -12.059  0.00  0.00    -0.270 NA
ATOM     31  C   UNL     1       5.486   5.929 -12.857  0.00  0.00    +0.090 C 
ATOM     32  C   UNL     1       4.170   5.588 -12.194  0.00  0.00    +0.090 C 
ATOM     33  N   UNL     1       4.252   5.779 -10.747  0.00  0.00    -0.266 NA
ATOM     34  C   UNL     1       5.351   6.691 -10.439  0.00  0.00    +0.090 C 
ATOM     35  C   UNL     1       6.680   6.068 -10.840  0.00  0.00    +0.090 C 
BRANCH  30  37
ATOM     36  C   UNL     1       8.881   5.750 -12.001  0.00  0.00    +0.019 C 
ATOM     37  C   UNL     1       7.751   5.172 -12.805  0.00  0.00    +0.072 C 
ENDBRANCH  30  37
ENDBRANCH  29  33
ENDBRANCH  23  29
ENDBRANCH   1  26
TORSDOF 6
ENDMDL
MODEL 6
REMARK VINA RESULT:      -9.0      2.895     10.366
REMARK  Name = 
REMARK  6 active torsions:
REMARK  status: ('A' for Active; 'I' for Inactive)
REMARK    1  A    between atoms: C_2  and  N_3
REMARK    2  A    between atoms: N_6  and  C_7
REMARK    3  A    between atoms: C_7  and  C_8
REMARK    4  A    between atoms: C_11  and  N_12
REMARK    5  A    between atoms: C_18  and  C_19
REMARK    6  A    between atoms: N_26  and  C_27
REMARK                            x       y       z     vdW  Elec       q    Type
REMARK                         _______ _______ _______ _____ _____    ______ ____
ROOT
ATOM      1  N   UNL     1       4.032   4.823  -2.493  0.00  0.00    -0.159 NA
ATOM      2  C   UNL     1       3.419   5.407  -3.643  0.00  0.00    +0.242 A 
ATOM      3  N   UNL     1       3.876   5.033  -4.843  0.00  0.00    -0.210 NA
ATOM      4  C   UNL     1       3.698   5.765  -5.972  0.00  0.00    +0.113 A 
ATOM      5  C   UNL     1       2.700   6.728  -5.918  0.00  0.00    +0.177 A 
ATOM      6  F   UNL     1       2.776   7.701  -6.869  0.00  0.00    -0.201 F 
ATOM      7  C   UNL     1       2.219   7.099  -4.671  0.00  0.00    +0.133 A 
ATOM      8  N   UNL     1       2.502   6.373  -3.566  0.00  0.00    -0.208 NA
ENDROOT
BRANCH   4   9
ATOM      9  C   UNL     1       3.914   5.127  -7.277  0.00  0.00    +0.024 A 
ATOM     10  C   UNL     1       2.839   4.676  -8.028  0.00  0.00    +0.033 A 
ATOM     11  C   UNL     1       2.866   4.629  -9.414  0.00  0.00    +0.159 A 
ATOM     12  F   UNL     1       1.745   4.354 -10.133  0.00  0.00    -0.203 F 
ATOM     13  C   UNL     1       3.876   5.340 -10.052  0.00  0.00    +0.126 A 
ATOM     14  N   UNL     1       4.042   5.879 -11.274  0.00  0.00    -0.229 NA
ATOM     15  C   UNL     1       5.307   6.364 -11.311  0.00  0.00    +0.121 A 
ATOM     16  N   UNL     1       5.978   5.825 -10.266  0.00  0.00    -0.317 N 
ATOM     17  C   UNL     1       5.865   7.384 -12.251  0.00  0.00    +0.072 C 
ATOM     18  C   UNL     1       5.074   5.399  -9.350  0.00  0.00    +0.081 A 
ATOM     19  C   UNL     1       5.113   5.250  -7.969  0.00  0.00    +0.020 A 
BRANCH  16  20
ATOM     20  C   UNL     1       7.417   5.675 -10.129  0.00  0.00    +0.087 C 
ATOM     21  C   UNL     1       8.072   5.226 -11.404  0.00  0.00    +0.025 C 
ATOM     22  C   UNL     1       8.007   7.030  -9.759  0.00  0.00    +0.025 C 
ENDBRANCH  16  20
ENDBRANCH   4   9
BRANCH   1  26
ATOM     23  C   UNL     1       2.889   7.660   0.128  0.00  0.00    +0.013 A 
ATOM     24  C   UNL     1       2.048   6.574  -0.042  0.00  0.00    +0.097 A 
ATOM     25  N   UNL     1       2.505   5.496  -0.715  0.00  0.00    -0.228 NA
ATOM     26  C   UNL     1       3.759   5.435  -1.225  0.00  0.00    +0.155 A 
ATOM     27  C   UNL     1       4.664   6.348  -0.699  0.00  0.00    +0.036 A 
ATOM     28  C   UNL     1       4.249   7.379   0.131  0.00  0.00    +0.002 A 
BRANCH  23  29
ATOM     29  C   UNL     1       2.385   9.032   0.406  0.00  0.00    +0.101 C 
BRANCH  29  33
ATOM     30  N   UNL     1       4.962  12.157   0.439  0.00  0.00    -0.270 NA
ATOM     31  C   UNL     1       3.826  12.132  -0.458  0.00  0.00    +0.090 C 
ATOM     32  C   UNL     1       3.535  10.678  -0.755  0.00  0.00    +0.090 C 
ATOM     33  N   UNL     1       3.574   9.880   0.469  0.00  0.00    -0.266 NA
ATOM     34  C   UNL     1       3.374  10.752   1.624  0.00  0.00    +0.090 C 
ATOM     35  C   UNL     1       4.528  11.735   1.747  0.00  0.00    +0.090 C 
BRANCH  30  37
ATOM     36  C   UNL     1       5.069  14.258  -0.704  0.00  0.00    +0.019 C 
ATOM     37  C   UNL     1       5.613  13.442   0.434  0.00  0.00    +0.072 C 
ENDBRANCH  30  37
ENDBRANCH  29  33
ENDBRANCH  23  29
ENDBRANCH   1  26
TORSDOF 6
ENDMDL
MODEL 7
REMARK VINA RESULT:      -8.9      3.459     11.070
REMARK  Name = 
REMARK  6 active torsions:
REMARK  status: ('A' for Active; 'I' for Inactive)
REMARK    1  A    between atoms: C_2  and  N_3
REMARK    2  A    between atoms: N_6  and  C_7
REMARK    3  A    between atoms: C_7  and  C_8
REMARK    4  A    between atoms: C_11  and  N_12
REMARK    5  A    between atoms: C_18  and  C_19
REMARK    6  A    between atoms: N_26  and  C_27
REMARK                            x       y       z     vdW  Elec       q    Type
REMARK                         _______ _______ _______ _____ _____    ______ ____
ROOT
ATOM      1  N   UNL     1       3.998   4.730  -2.862  0.00  0.00    -0.159 NA
ATOM      2  C   UNL     1       3.312   5.314  -3.969  0.00  0.00    +0.242 A 
ATOM      3  N   UNL     1       3.775   5.046  -5.194  0.00  0.00    -0.210 NA
ATOM      4  C   UNL     1       3.510   5.815  -6.280  0.00  0.00    +0.113 A 
ATOM      5  C   UNL     1       2.431   6.681  -6.158  0.00  0.00    +0.177 A 
ATOM      6  F   UNL     1       2.401   7.704  -7.058  0.00  0.00    -0.201 F 
ATOM      7  C   UNL     1       1.945   6.942  -4.886  0.00  0.00    +0.133 A 
ATOM      8  N   UNL     1       2.314   6.189  -3.825  0.00  0.00    -0.208 NA
ENDROOT
BRANCH   4   9
ATOM      9  C   UNL     1       3.753   5.268  -7.620  0.00  0.00    +0.024 A 
ATOM     10  C   UNL     1       2.695   4.995  -8.474  0.00  0.00    +0.033 A 
ATOM     11  C   UNL     1       2.817   5.059  -9.854  0.00  0.00    +0.159 A 
ATOM     12  F   UNL     1       1.729   4.963 -10.664  0.00  0.00    -0.203 F 
ATOM     13  C   UNL     1       3.936   5.709 -10.362  0.00  0.00    +0.126 A 
ATOM     14  N   UNL     1       4.241   6.326 -11.519  0.00  0.00    -0.229 NA
ATOM     15  C   UNL     1       5.547   6.677 -11.434  0.00  0.00    +0.121 A 
ATOM     16  N   UNL     1       6.085   5.987 -10.400  0.00  0.00    -0.317 N 
ATOM     17  C   UNL     1       6.270   7.706 -12.242  0.00  0.00    +0.072 C 
ATOM     18  C   UNL     1       5.080   5.584  -9.584  0.00  0.00    +0.081 A 
ATOM     19  C   UNL     1       5.005   5.320  -8.222  0.00  0.00    +0.020 A 
BRANCH  16  20
ATOM     20  C   UNL     1       7.488   5.675 -10.187  0.00  0.00    +0.087 C 
ATOM     21  C   UNL     1       8.191   5.290 -11.458  0.00  0.00    +0.025 C 
ATOM     22  C   UNL     1       8.177   6.918  -9.637  0.00  0.00    +0.025 C 
ENDBRANCH  16  20
ENDBRANCH   4   9
BRANCH   1  26
ATOM     23  C   UNL     1       2.341   7.114  -0.070  0.00  0.00    +0.013 A 
ATOM     24  C   UNL     1       1.868   5.816  -0.161  0.00  0.00    +0.097 A 
ATOM     25  N   UNL     1       2.557   4.923  -0.904  0.00  0.00    -0.228 NA
ATOM     26  C   UNL     1       3.698   5.249  -1.559  0.00  0.00    +0.155 A 
ATOM     27  C   UNL     1       4.327   6.408  -1.125  0.00  0.00    +0.036 A 
ATOM     28  C   UNL     1       3.711   7.273  -0.232  0.00  0.00    +0.002 A 
BRANCH  23  29
ATOM     29  C   UNL     1       1.469   8.264   0.291  0.00  0.00    +0.101 C 
BRANCH  29  33
ATOM     30  N   UNL     1      -1.994   7.662   2.304  0.00  0.00    -0.270 NA
ATOM     31  C   UNL     1      -1.062   8.693   2.709  0.00  0.00    +0.090 C 
ATOM     32  C   UNL     1       0.316   8.219   2.304  0.00  0.00    +0.090 C 
ATOM     33  N   UNL     1       0.301   7.678   0.946  0.00  0.00    -0.266 NA
ATOM     34  C   UNL     1      -0.857   8.203   0.227  0.00  0.00    +0.090 C 
ATOM     35  C   UNL     1      -2.144   7.712   0.872  0.00  0.00    +0.090 C 
BRANCH  30  37
ATOM     36  C   UNL     1      -3.744   9.177   2.917  0.00  0.00    +0.019 C 
ATOM     37  C   UNL     1      -3.241   7.765   3.018  0.00  0.00    +0.072 C 
ENDBRANCH  30  37
ENDBRANCH  29  33
ENDBRANCH  23  29
ENDBRANCH   1  26
TORSDOF 6
ENDMDL
MODEL 8
REMARK VINA RESULT:      -8.9      2.770      4.613
REMARK  Name = 
REMARK  6 active torsions:
REMARK  status: ('A' for Active; 'I' for Inactive)
REMARK    1  A    between atoms: C_2  and  N_3
REMARK    2  A    between atoms: N_6  and  C_7
REMARK    3  A    between atoms: C_7  and  C_8
REMARK    4  A    between atoms: C_11  and  N_12
REMARK    5  A    between atoms: C_18  and  C_19
REMARK    6  A    between atoms: N_26  and  C_27
REMARK                            x       y       z     vdW  Elec       q    Type
REMARK                         _______ _______ _______ _____ _____    ______ ____
ROOT
ATOM      1  N   UNL     1       3.593   5.476  -7.970  0.00  0.00    -0.159 NA
ATOM      2  C   UNL     1       3.681   5.903  -6.611  0.00  0.00    +0.242 A 
ATOM      3  N   UNL     1       2.652   5.619  -5.805  0.00  0.00    -0.210 NA
ATOM      4  C   UNL     1       2.401   6.282  -4.649  0.00  0.00    +0.113 A 
ATOM      5  C   UNL     1       3.460   7.016  -4.131  0.00  0.00    +0.177 A 
ATOM      6  F   UNL     1       3.117   7.971  -3.220  0.00  0.00    -0.201 F 
ATOM      7  C   UNL     1       4.532   7.294  -4.966  0.00  0.00    +0.133 A 
ATOM      8  N   UNL     1       4.682   6.658  -6.150  0.00  0.00    -0.208 NA
ENDROOT
BRANCH   4   9
ATOM      9  C   UNL     1       1.484   5.688  -3.669  0.00  0.00    +0.024 A 
ATOM     10  C   UNL     1       1.970   4.906  -2.631  0.00  0.00    +0.033 A 
ATOM     11  C   UNL     1       1.328   4.815  -1.405  0.00  0.00    +0.159 A 
ATOM     12  F   UNL     1       1.912   4.190  -0.348  0.00  0.00    -0.203 F 
ATOM     13  C   UNL     1       0.357   5.770  -1.125  0.00  0.00    +0.126 A 
ATOM     14  N   UNL     1      -0.185   6.285  -0.006  0.00  0.00    -0.229 NA
ATOM     15  C   UNL     1      -1.170   7.125  -0.407  0.00  0.00    +0.121 A 
ATOM     16  N   UNL     1      -1.429   6.853  -1.708  0.00  0.00    -0.317 N 
ATOM     17  C   UNL     1      -1.805   8.227   0.378  0.00  0.00    +0.072 C 
ATOM     18  C   UNL     1      -0.356   6.212  -2.233  0.00  0.00    +0.081 A 
ATOM     19  C   UNL     1       0.177   6.136  -3.515  0.00  0.00    +0.020 A 
BRANCH  16  20
ATOM     20  C   UNL     1      -2.649   7.145  -2.441  0.00  0.00    +0.087 C 
ATOM     21  C   UNL     1      -2.392   7.924  -3.699  0.00  0.00    +0.025 C 
ATOM     22  C   UNL     1      -3.295   5.823  -2.840  0.00  0.00    +0.025 C 
ENDBRANCH  16  20
ENDBRANCH   4   9
BRANCH   1  26
ATOM     23  C   UNL     1       5.730   5.869 -11.361  0.00  0.00    +0.013 A 
ATOM     24  C   UNL     1       4.723   6.791 -11.133  0.00  0.00    +0.097 A 
ATOM     25  N   UNL     1       4.155   6.844  -9.908  0.00  0.00    -0.228 NA
ATOM     26  C   UNL     1       4.539   6.033  -8.893  0.00  0.00    +0.155 A 
ATOM     27  C   UNL     1       5.779   5.428  -9.046  0.00  0.00    +0.036 A 
ATOM     28  C   UNL     1       6.469   5.491 -10.249  0.00  0.00    +0.002 A 
BRANCH  23  29
ATOM     29  C   UNL     1       6.088   5.389 -12.723  0.00  0.00    +0.101 C 
BRANCH  29  33
ATOM     30  N   UNL     1       5.913   7.894 -15.902  0.00  0.00    -0.270 NA
ATOM     31  C   UNL     1       7.004   6.955 -15.747  0.00  0.00    +0.090 C 
ATOM     32  C   UNL     1       7.184   6.736 -14.261  0.00  0.00    +0.090 C 
ATOM     33  N   UNL     1       5.892   6.539 -13.605  0.00  0.00    -0.266 NA
ATOM     34  C   UNL     1       4.905   6.112 -14.594  0.00  0.00    +0.090 C 
ATOM     35  C   UNL     1       4.674   7.214 -15.617  0.00  0.00    +0.090 C 
BRANCH  30  37
ATOM     36  C   UNL     1       7.335   9.000 -17.479  0.00  0.00    +0.019 C 
ATOM     37  C   UNL     1       5.937   8.526 -17.196  0.00  0.00    +0.072 C 
ENDBRANCH  30  37
ENDBRANCH  29  33
ENDBRANCH  23  29
ENDBRANCH   1  26
TORSDOF 6
ENDMDL
MODEL 9
REMARK VINA RESULT:      -8.8      2.289     10.043
REMARK  Name = 
REMARK  6 active torsions:
REMARK  status: ('A' for Active; 'I' for Inactive)
REMARK    1  A    between atoms: C_2  and  N_3
REMARK    2  A    between atoms: N_6  and  C_7
REMARK    3  A    between atoms: C_7  and  C_8
REMARK    4  A    between atoms: C_11  and  N_12
REMARK    5  A    between atoms: C_18  and  C_19
REMARK    6  A    between atoms: N_26  and  C_27
REMARK                            x       y       z     vdW  Elec       q    Type
REMARK                         _______ _______ _______ _____ _____    ______ ____
ROOT
ATOM      1  N   UNL     1       4.987   6.642  -4.562  0.00  0.00    -0.159 NA
ATOM      2  C   UNL     1       4.277   5.948  -5.587  0.00  0.00    +0.242 A 
ATOM      3  N   UNL     1       4.338   6.446  -6.827  0.00  0.00    -0.210 NA
ATOM      4  C   UNL     1       3.429   6.162  -7.793  0.00  0.00    +0.113 A 
ATOM      5  C   UNL     1       2.642   5.039  -7.572  0.00  0.00    +0.177 A 
ATOM      6  F   UNL     1       1.499   4.974  -8.312  0.00  0.00    -0.201 F 
ATOM      7  C   UNL     1       2.596   4.518  -6.288  0.00  0.00    +0.133 A 
ATOM      8  N   UNL     1       3.481   4.905  -5.341  0.00  0.00    -0.208 NA
ENDROOT
BRANCH   4   9
ATOM      9  C   UNL     1       3.759   6.457  -9.193  0.00  0.00    +0.024 A 
ATOM     10  C   UNL     1       4.930   5.974  -9.759  0.00  0.00    +0.033 A 
ATOM     11  C   UNL     1       5.039   5.686 -11.111  0.00  0.00    +0.159 A 
ATOM     12  F   UNL     1       6.131   5.049 -11.611  0.00  0.00    -0.203 F 
ATOM     13  C   UNL     1       3.856   5.591 -11.837  0.00  0.00    +0.126 A 
ATOM     14  N   UNL     1       3.478   4.980 -12.974  0.00  0.00    -0.229 NA
ATOM     15  C   UNL     1       2.197   5.356 -13.205  0.00  0.00    +0.121 A 
ATOM     16  N   UNL     1       1.941   6.425 -12.414  0.00  0.00    -0.317 N 
ATOM     17  C   UNL     1       1.191   4.682 -14.082  0.00  0.00    +0.072 C 
ATOM     18  C   UNL     1       2.842   6.435 -11.401  0.00  0.00    +0.081 A 
ATOM     19  C   UNL     1       2.804   6.910 -10.096  0.00  0.00    +0.020 A 
BRANCH  16  20
ATOM     20  C   UNL     1       0.913   7.434 -12.607  0.00  0.00    +0.087 C 
ATOM     21  C   UNL     1       0.543   7.611 -14.052  0.00  0.00    +0.025 C 
ATOM     22  C   UNL     1      -0.340   6.990 -11.860  0.00  0.00    +0.025 C 
ENDBRANCH  16  20
ENDBRANCH   4   9
BRANCH   1  26
ATOM     23  C   UNL     1       2.757   5.617  -1.369  0.00  0.00    +0.013 A 
ATOM     24  C   UNL     1       3.573   4.640  -1.915  0.00  0.00    +0.097 A 
ATOM     25  N   UNL     1       4.509   5.006  -2.818  0.00  0.00    -0.228 NA
ATOM     26  C   UNL     1       4.682   6.293  -3.204  0.00  0.00    +0.155 A 
ATOM     27  C   UNL     1       4.135   7.251  -2.361  0.00  0.00    +0.036 A 
ATOM     28  C   UNL     1       3.292   6.896  -1.317  0.00  0.00    +0.002 A 
BRANCH  23  29
ATOM     29  C   UNL     1       1.432   5.311  -0.765  0.00  0.00    +0.101 C 
BRANCH  29  33
ATOM     30  N   UNL     1      -1.717   6.661  -2.928  0.00  0.00    -0.270 NA
ATOM     31  C   UNL     1      -1.083   5.396  -3.236  0.00  0.00    +0.090 C 
ATOM     32  C   UNL     1       0.365   5.518  -2.814  0.00  0.00    +0.090 C 
ATOM     33  N   UNL     1       0.470   6.137  -1.494  0.00  0.00    -0.266 NA
ATOM     34  C   UNL     1      -0.797   5.984  -0.783  0.00  0.00    +0.090 C 
ATOM     35  C   UNL     1      -1.898   6.751  -1.501  0.00  0.00    +0.090 C 
BRANCH  30  37
ATOM     36  C   UNL     1      -2.592   7.338  -5.051  0.00  0.00    +0.019 C 
ATOM     37  C   UNL     1      -2.934   6.839  -3.675  0.00  0.00    +0.072 C 
ENDBRANCH  30  37
ENDBRANCH  29  33
ENDBRANCH  23  29
ENDBRANCH   1  26
TORSDOF 6
ENDMDL
