MODEL 1
REMARK VINA RESULT:      -6.9      0.000      0.000
REMARK  Name = 
REMARK  2 active torsions:
REMARK  status: ('A' for Active; 'I' for Inactive)
REMARK    1  A    between atoms: C_2  and  C_4
REMARK    2  A    between atoms: C_4  and  C_6
REMARK                            x       y       z     vdW  Elec       q    Type
REMARK                         _______ _______ _______ _____ _____    ______ ____
ROOT
ATOM      1  C   UNL     1       4.864   5.094 -12.574  0.00  0.00    +0.147 C 
ATOM      2  N   UNL     1       4.172   6.124 -11.626  0.00  0.00    -0.228 NA
ATOM      3  C   UNL     1       2.793   5.830 -11.394  0.00  0.00    +0.157 A 
ATOM      4  C   UNL     1       1.971   5.678 -12.506  0.00  0.00    +0.170 A 
ATOM      5  N   UNL     1       0.732   6.232 -12.544  0.00  0.00    -0.193 NA
ATOM      6  C   UNL     1       0.227   6.850 -11.446  0.00  0.00    +0.260 A 
ATOM      7  N   UNL     1       0.853   6.545 -10.282  0.00  0.00    -0.171 NA
ATOM      8  N   UNL     1      -0.570   8.035 -11.571  0.00  0.00    -0.086 NA
ATOM      9  N   UNL     1       2.673   5.298 -13.696  0.00  0.00    -0.217 NA
ATOM     10  C   UNL     1       2.142   6.164 -10.220  0.00  0.00    +0.299 A 
ATOM     11  O   UNL     1       2.825   6.123  -9.179  0.00  0.00    -0.264 OA
ATOM     12  C   UNL     1       4.066   5.606 -13.898  0.00  0.00    +0.138 C 
ENDROOT
BRANCH   1  13
ATOM     13  C   UNL     1       6.246   6.049 -12.914  0.00  0.00    +0.203 C 
ATOM     14  O   UNL     1       6.626   5.168 -14.061  0.00  0.00    -0.219 OA
BRANCH  13  16
ATOM     15  C   UNL     1       7.582   6.836 -11.098  0.00  0.00    +0.038 C 
ATOM     16  C   UNL     1       7.232   5.346 -11.698  0.00  0.00    +0.184 C 
ATOM     17  O   UNL     1       8.529   5.311 -12.466  0.00  0.00    -0.220 OA
ENDBRANCH  13  16
ENDBRANCH   1  13
TORSDOF 2
ENDMDL
MODEL 2
REMARK VINA RESULT:      -6.9      5.530      7.553
REMARK  Name = 
REMARK  2 active torsions:
REMARK  status: ('A' for Active; 'I' for Inactive)
REMARK    1  A    between atoms: C_2  and  C_4
REMARK    2  A    between atoms: C_4  and  C_6
REMARK                            x       y       z     vdW  Elec       q    Type
REMARK                         _______ _______ _______ _____ _____    ______ ____
ROOT
ATOM      1  C   UNL     1       2.245   6.243  -6.177  0.00  0.00    +0.147 C 
ATOM      2  N   UNL     1       0.970   5.344  -6.099  0.00  0.00    -0.228 NA
ATOM      3  C   UNL     1      -0.118   5.977  -5.423  0.00  0.00    +0.157 A 
ATOM      4  C   UNL     1       0.117   6.468  -4.142  0.00  0.00    +0.170 A 
ATOM      5  N   UNL     1      -0.782   6.282  -3.143  0.00  0.00    -0.193 NA
ATOM      6  C   UNL     1      -1.984   5.709  -3.405  0.00  0.00    +0.260 A 
ATOM      7  N   UNL     1      -2.339   5.702  -4.714  0.00  0.00    -0.171 NA
ATOM      8  N   UNL     1      -2.589   4.808  -2.468  0.00  0.00    -0.086 NA
ATOM      9  N   UNL     1       1.495   6.769  -3.884  0.00  0.00    -0.217 NA
ATOM     10  C   UNL     1      -1.442   5.707  -5.717  0.00  0.00    +0.299 A 
ATOM     11  O   UNL     1      -1.701   5.446  -6.907  0.00  0.00    -0.264 OA
ATOM     12  C   UNL     1       2.569   6.117  -4.586  0.00  0.00    +0.138 C 
ENDROOT
BRANCH   1  13
ATOM     13  C   UNL     1       3.334   4.990  -6.601  0.00  0.00    +0.203 C 
ATOM     14  O   UNL     1       4.514   5.832  -6.234  0.00  0.00    -0.219 OA
BRANCH  13  16
ATOM     15  C   UNL     1       2.708   3.797  -8.573  0.00  0.00    +0.038 C 
ATOM     16  C   UNL     1       3.295   5.306  -8.288  0.00  0.00    +0.184 C 
ATOM     17  O   UNL     1       4.697   4.862  -8.623  0.00  0.00    -0.220 OA
ENDBRANCH  13  16
ENDBRANCH   1  13
TORSDOF 2
ENDMDL
MODEL 3
REMARK VINA RESULT:      -6.8      7.286      8.781
REMARK  Name = 
REMARK  2 active torsions:
REMARK  status: ('A' for Active; 'I' for Inactive)
REMARK    1  A    between atoms: C_2  and  C_4
REMARK    2  A    between atoms: C_4  and  C_6
REMARK                            x       y       z     vdW  Elec       q    Type
REMARK                         _______ _______ _______ _____ _____    ______ ____
ROOT
ATOM      1  C   UNL     1       2.063   5.984  -4.693  0.00  0.00    +0.147 C 
ATOM      2  N   UNL     1       1.217   6.223  -3.402  0.00  0.00    -0.228 NA
ATOM      3  C   UNL     1      -0.002   5.477  -3.387  0.00  0.00    +0.157 A 
ATOM      4  C   UNL     1      -0.860   5.624  -4.473  0.00  0.00    +0.170 A 
ATOM      5  N   UNL     1      -2.199   5.756  -4.296  0.00  0.00    -0.193 NA
ATOM      6  C   UNL     1      -2.739   5.631  -3.056  0.00  0.00    +0.260 A 
ATOM      7  N   UNL     1      -1.941   5.020  -2.146  0.00  0.00    -0.171 NA
ATOM      8  N   UNL     1      -3.833   6.461  -2.645  0.00  0.00    -0.086 NA
ATOM      9  N   UNL     1      -0.203   6.047  -5.675  0.00  0.00    -0.217 NA
ATOM     10  C   UNL     1      -0.597   5.037  -2.219  0.00  0.00    +0.299 A 
ATOM     11  O   UNL     1       0.172   4.720  -1.292  0.00  0.00    -0.264 OA
ATOM     12  C   UNL     1       1.028   6.795  -5.656  0.00  0.00    +0.138 C 
ENDROOT
BRANCH   1  13
ATOM     13  C   UNL     1       3.096   7.337  -4.495  0.00  0.00    +0.203 C 
ATOM     14  O   UNL     1       3.473   7.316  -5.942  0.00  0.00    -0.219 OA
BRANCH  13  16
ATOM     15  C   UNL     1       4.353   7.308  -2.466  0.00  0.00    +0.038 C 
ATOM     16  C   UNL     1       4.416   6.441  -3.861  0.00  0.00    +0.184 C 
ATOM     17  O   UNL     1       5.534   7.303  -4.389  0.00  0.00    -0.220 OA
ENDBRANCH  13  16
ENDBRANCH   1  13
TORSDOF 2
ENDMDL
MODEL 4
REMARK VINA RESULT:      -6.7      7.220      9.363
REMARK  Name = 
REMARK  2 active torsions:
REMARK  status: ('A' for Active; 'I' for Inactive)
REMARK    1  A    between atoms: C_2  and  C_4
REMARK    2  A    between atoms: C_4  and  C_6
REMARK                            x       y       z     vdW  Elec       q    Type
REMARK                         _______ _______ _______ _____ _____    ______ ____
ROOT
ATOM      1  C   UNL     1      -0.397   5.303  -5.401  0.00  0.00    +0.147 C 
ATOM      2  N   UNL     1       0.230   5.595  -4.001  0.00  0.00    -0.228 NA
ATOM      3  C   UNL     1      -0.748   5.733  -2.969  0.00  0.00    +0.157 A 
ATOM      4  C   UNL     1      -1.765   6.663  -3.166  0.00  0.00    +0.170 A 
ATOM      5  N   UNL     1      -2.163   7.490  -2.165  0.00  0.00    -0.193 NA
ATOM      6  C   UNL     1      -1.652   7.344  -0.916  0.00  0.00    +0.260 A 
ATOM      7  N   UNL     1      -1.058   6.148  -0.680  0.00  0.00    -0.171 NA
ATOM      8  N   UNL     1      -1.368   8.488  -0.101  0.00  0.00    -0.086 NA
ATOM      9  N   UNL     1      -2.019   6.957  -4.545  0.00  0.00    -0.217 NA
ATOM     10  C   UNL     1      -0.499   5.402  -1.650  0.00  0.00    +0.299 A 
ATOM     11  O   UNL     1       0.270   4.441  -1.458  0.00  0.00    -0.264 OA
ATOM     12  C   UNL     1      -1.012   6.803  -5.563  0.00  0.00    +0.138 C 
ENDROOT
BRANCH   1  13
ATOM     13  C   UNL     1       1.005   5.671  -6.316  0.00  0.00    +0.203 C 
ATOM     14  O   UNL     1       0.265   5.492  -7.603  0.00  0.00    -0.219 OA
BRANCH  13  16
ATOM     15  C   UNL     1       3.076   4.751  -5.565  0.00  0.00    +0.038 C 
ATOM     16  C   UNL     1       1.698   4.106  -6.186  0.00  0.00    +0.184 C 
ATOM     17  O   UNL     1       2.312   4.027  -7.561  0.00  0.00    -0.220 OA
ENDBRANCH  13  16
ENDBRANCH   1  13
TORSDOF 2
ENDMDL
MODEL 5
REMARK VINA RESULT:      -6.6      4.693      6.821
REMARK  Name = 
REMARK  2 active torsions:
REMARK  status: ('A' for Active; 'I' for Inactive)
REMARK    1  A    between atoms: C_2  and  C_4
REMARK    2  A    between atoms: C_4  and  C_6
REMARK                            x       y       z     vdW  Elec       q    Type
REMARK                         _______ _______ _______ _____ _____    ______ ____
ROOT
ATOM      1  C   UNL     1       2.582   5.745  -4.885  0.00  0.00    +0.147 C 
ATOM      2  N   UNL     1       3.027   6.508  -6.173  0.00  0.00    -0.228 NA
ATOM      3  C   UNL     1       2.077   6.411  -7.236  0.00  0.00    +0.157 A 
ATOM      4  C   UNL     1       1.680   5.137  -7.630  0.00  0.00    +0.170 A 
ATOM      5  N   UNL     1       1.565   4.813  -8.943  0.00  0.00    -0.193 NA
ATOM      6  C   UNL     1       1.725   5.765  -9.898  0.00  0.00    +0.260 A 
ATOM      7  N   UNL     1       1.625   7.041  -9.451  0.00  0.00    -0.171 NA
ATOM      8  N   UNL     1       2.381   5.461 -11.135  0.00  0.00    -0.086 NA
ATOM      9  N   UNL     1       1.833   4.143  -6.609  0.00  0.00    -0.217 NA
ATOM     10  C   UNL     1       1.911   7.401  -8.187  0.00  0.00    +0.299 A 
ATOM     11  O   UNL     1       2.082   8.573  -7.800  0.00  0.00    -0.264 OA
ATOM     12  C   UNL     1       2.798   4.273  -5.548  0.00  0.00    +0.138 C 
ENDROOT
BRANCH   1  13
ATOM     13  C   UNL     1       4.120   5.740  -4.128  0.00  0.00    +0.203 C 
ATOM     14  O   UNL     1       3.608   4.906  -2.997  0.00  0.00    -0.219 OA
BRANCH  13  16
ATOM     15  C   UNL     1       5.318   7.805  -4.172  0.00  0.00    +0.038 C 
ATOM     16  C   UNL     1       3.953   7.292  -3.414  0.00  0.00    +0.184 C 
ATOM     17  O   UNL     1       4.716   7.026  -2.141  0.00  0.00    -0.220 OA
ENDBRANCH  13  16
ENDBRANCH   1  13
TORSDOF 2
ENDMDL
MODEL 6
REMARK VINA RESULT:      -6.6      2.636      5.897
REMARK  Name = 
REMARK  2 active torsions:
REMARK  status: ('A' for Active; 'I' for Inactive)
REMARK    1  A    between atoms: C_2  and  C_4
REMARK    2  A    between atoms: C_4  and  C_6
REMARK                            x       y       z     vdW  Elec       q    Type
REMARK                         _______ _______ _______ _____ _____    ______ ____
ROOT
ATOM      1  C   UNL     1       2.634   6.097  -9.393  0.00  0.00    +0.147 C 
ATOM      2  N   UNL     1       3.969   5.287  -9.391  0.00  0.00    -0.228 NA
ATOM      3  C   UNL     1       5.008   5.920 -10.141  0.00  0.00    +0.157 A 
ATOM      4  C   UNL     1       4.734   6.257 -11.463  0.00  0.00    +0.170 A 
ATOM      5  N   UNL     1       5.641   6.030 -12.448  0.00  0.00    -0.193 NA
ATOM      6  C   UNL     1       6.882   5.574 -12.140  0.00  0.00    +0.260 A 
ATOM      7  N   UNL     1       7.240   5.730 -10.841  0.00  0.00    -0.171 NA
ATOM      8  N   UNL     1       7.546   4.625 -12.984  0.00  0.00    -0.086 NA
ATOM      9  N   UNL     1       3.338   6.431 -11.737  0.00  0.00    -0.217 NA
ATOM     10  C   UNL     1       6.349   5.777  -9.834  0.00  0.00    +0.299 A 
ATOM     11  O   UNL     1       6.630   5.661  -8.627  0.00  0.00    -0.264 OA
ATOM     12  C   UNL     1       2.314   5.782 -10.959  0.00  0.00    +0.138 C 
ENDROOT
BRANCH   1  13
ATOM     13  C   UNL     1       1.638   4.821  -8.829  0.00  0.00    +0.203 C 
ATOM     14  O   UNL     1       0.405   5.509  -9.320  0.00  0.00    -0.219 OA
BRANCH  13  16
ATOM     15  C   UNL     1       2.125   3.875  -6.691  0.00  0.00    +0.038 C 
ATOM     16  C   UNL     1       1.608   5.351  -7.196  0.00  0.00    +0.184 C 
ATOM     17  O   UNL     1       0.176   4.997  -6.882  0.00  0.00    -0.220 OA
ENDBRANCH  13  16
ENDBRANCH   1  13
TORSDOF 2
ENDMDL
MODEL 7
REMARK VINA RESULT:      -6.6      1.954      2.526
REMARK  Name = 
REMARK  2 active torsions:
REMARK  status: ('A' for Active; 'I' for Inactive)
REMARK    1  A    between atoms: C_2  and  C_4
REMARK    2  A    between atoms: C_4  and  C_6
REMARK                            x       y       z     vdW  Elec       q    Type
REMARK                         _______ _______ _______ _____ _____    ______ ____
ROOT
ATOM      1  C   UNL     1       4.703   5.110 -11.857  0.00  0.00    +0.147 C 
ATOM      2  N   UNL     1       4.955   5.844 -10.502  0.00  0.00    -0.228 NA
ATOM      3  C   UNL     1       3.889   5.671  -9.566  0.00  0.00    +0.157 A 
ATOM      4  C   UNL     1       2.605   6.009  -9.983  0.00  0.00    +0.170 A 
ATOM      5  N   UNL     1       1.763   6.700  -9.173  0.00  0.00    -0.193 NA
ATOM      6  C   UNL     1       2.121   6.974  -7.893  0.00  0.00    +0.260 A 
ATOM      7  N   UNL     1       3.138   6.218  -7.411  0.00  0.00    -0.171 NA
ATOM      8  N   UNL     1       1.774   8.225  -7.286  0.00  0.00    -0.086 NA
ATOM      9  N   UNL     1       2.429   5.961 -11.405  0.00  0.00    -0.217 NA
ATOM     10  C   UNL     1       4.085   5.674  -8.197  0.00  0.00    +0.299 A 
ATOM     11  O   UNL     1       5.162   5.199  -7.792  0.00  0.00    -0.264 OA
ATOM     12  C   UNL     1       3.526   6.135 -12.322  0.00  0.00    +0.138 C 
ENDROOT
BRANCH   1  13
ATOM     13  C   UNL     1       5.912   5.936 -12.748  0.00  0.00    +0.203 C 
ATOM     14  O   UNL     1       5.707   5.047 -13.933  0.00  0.00    -0.219 OA
BRANCH  13  16
ATOM     15  C   UNL     1       8.016   6.543 -11.794  0.00  0.00    +0.038 C 
ATOM     16  C   UNL     1       7.235   5.115 -12.023  0.00  0.00    +0.184 C 
ATOM     17  O   UNL     1       8.029   4.840 -13.275  0.00  0.00    -0.220 OA
ENDBRANCH  13  16
ENDBRANCH   1  13
TORSDOF 2
ENDMDL
MODEL 8
REMARK VINA RESULT:      -6.6      6.253      9.490
REMARK  Name = 
REMARK  2 active torsions:
REMARK  status: ('A' for Active; 'I' for Inactive)
REMARK    1  A    between atoms: C_2  and  C_4
REMARK    2  A    between atoms: C_4  and  C_6
REMARK                            x       y       z     vdW  Elec       q    Type
REMARK                         _______ _______ _______ _____ _____    ______ ____
ROOT
ATOM      1  C   UNL     1       0.388   5.204  -3.431  0.00  0.00    +0.147 C 
ATOM      2  N   UNL     1      -0.069   5.942  -4.729  0.00  0.00    -0.228 NA
ATOM      3  C   UNL     1       0.845   5.778  -5.816  0.00  0.00    +0.157 A 
ATOM      4  C   UNL     1       2.176   6.120  -5.595  0.00  0.00    +0.170 A 
ATOM      5  N   UNL     1       2.884   6.818  -6.519  0.00  0.00    -0.193 NA
ATOM      6  C   UNL     1       2.336   7.096  -7.730  0.00  0.00    +0.260 A 
ATOM      7  N   UNL     1       1.261   6.337  -8.057  0.00  0.00    -0.171 NA
ATOM      8  N   UNL     1       2.582   8.351  -8.377  0.00  0.00    -0.086 NA
ATOM      9  N   UNL     1       2.564   6.068  -4.216  0.00  0.00    -0.217 NA
ATOM     10  C   UNL     1       0.446   5.785  -7.139  0.00  0.00    +0.299 A 
ATOM     11  O   UNL     1      -0.679   5.306  -7.380  0.00  0.00    -0.264 OA
ATOM     12  C   UNL     1       1.618   6.233  -3.144  0.00  0.00    +0.138 C 
ENDROOT
BRANCH   1  13
ATOM     13  C   UNL     1      -0.677   6.020  -2.365  0.00  0.00    +0.203 C 
ATOM     14  O   UNL     1      -0.416   5.029  -1.276  0.00  0.00    -0.219 OA
BRANCH  13  16
ATOM     15  C   UNL     1      -2.839   6.809  -3.002  0.00  0.00    +0.038 C 
ATOM     16  C   UNL     1      -2.111   5.335  -3.013  0.00  0.00    +0.184 C 
ATOM     17  O   UNL     1      -2.776   4.957  -1.714  0.00  0.00    -0.220 OA
ENDBRANCH  13  16
ENDBRANCH   1  13
TORSDOF 2
ENDMDL
MODEL 9
REMARK VINA RESULT:      -6.5      1.966      3.446
REMARK  Name = 
REMARK  2 active torsions:
REMARK  status: ('A' for Active; 'I' for Inactive)
REMARK    1  A    between atoms: C_2  and  C_4
REMARK    2  A    between atoms: C_4  and  C_6
REMARK                            x       y       z     vdW  Elec       q    Type
REMARK                         _______ _______ _______ _____ _____    ______ ____
ROOT
ATOM      1  C   UNL     1       4.254   6.373 -10.868  0.00  0.00    +0.147 C 
ATOM      2  N   UNL     1       4.147   5.670 -12.258  0.00  0.00    -0.228 NA
ATOM      3  C   UNL     1       2.905   5.923 -12.919  0.00  0.00    +0.157 A 
ATOM      4  C   UNL     1       1.735   5.637 -12.222  0.00  0.00    +0.170 A 
ATOM      5  N   UNL     1       0.692   5.014 -12.828  0.00  0.00    -0.193 NA
ATOM      6  C   UNL     1       0.730   4.762 -14.162  0.00  0.00    +0.260 A 
ATOM      7  N   UNL     1       1.650   5.481 -14.852  0.00  0.00    -0.171 NA
ATOM      8  N   UNL     1       0.185   3.548 -14.695  0.00  0.00    -0.086 NA
ATOM      9  N   UNL     1       1.893   5.650 -10.797  0.00  0.00    -0.217 NA
ATOM     10  C   UNL     1       2.781   5.953 -14.295  0.00  0.00    +0.299 A 
ATOM     11  O   UNL     1       3.761   6.387 -14.930  0.00  0.00    -0.264 OA
ATOM     12  C   UNL     1       3.160   5.394 -10.162  0.00  0.00    +0.138 C 
ENDROOT
BRANCH   1  13
ATOM     13  C   UNL     1       5.588   5.462 -10.296  0.00  0.00    +0.203 C 
ATOM     14  O   UNL     1       5.291   5.835  -8.879  0.00  0.00    -0.219 OA
BRANCH  13  16
ATOM     15  C   UNL     1       7.579   5.602 -11.607  0.00  0.00    +0.038 C 
ATOM     16  C   UNL     1       6.765   6.661 -10.649  0.00  0.00    +0.184 C 
ATOM     17  O   UNL     1       7.698   6.391  -9.496  0.00  0.00    -0.220 OA
ENDBRANCH  13  16
ENDBRANCH   1  13
TORSDOF 2
ENDMDL
