MODEL 1
REMARK VINA RESULT:     -12.0      0.000      0.000
REMARK  Name = 
REMARK  4 active torsions:
REMARK  status: ('A' for Active; 'I' for Inactive)
REMARK    1  A    between atoms: C_4  and  C_5
REMARK    2  A    between atoms: N_7  and  C_8
REMARK    3  A    between atoms: C_20  and  C_21
REMARK    4  A    between atoms: C_21  and  C_22
REMARK                            x       y       z     vdW  Elec       q    Type
REMARK                         _______ _______ _______ _____ _____    ______ ____
ROOT
ATOM      1  C   UNL     1       4.296   6.726  -4.707  0.00  0.00    +0.243 C 
ATOM      2  C   UNL     1       2.831   6.873  -4.630  0.00  0.00    +0.274 C 
ATOM      3  O   UNL     1       2.141   7.568  -5.420  0.00  0.00    -0.270 OA
ATOM      4  N   UNL     1       2.404   5.989  -3.576  0.00  0.00    -0.225 N 
ATOM      5  C   UNL     1       3.569   5.724  -2.837  0.00  0.00    +0.307 C 
ATOM      6  C   UNL     1       3.602   7.027  -1.820  0.00  0.00    +0.149 C 
ATOM      7  N   UNL     1       2.600   6.344  -0.802  0.00  0.00    -0.273 N 
ATOM      8  C   UNL     1       1.462   5.715  -1.407  0.00  0.00    +0.244 C 
ATOM      9  O   UNL     1       0.473   5.795  -0.609  0.00  0.00    -0.273 OA
ATOM     10  C   UNL     1       2.981   6.951   0.433  0.00  0.00    +0.094 C 
ATOM     11  C   UNL     1       4.474   7.091   0.340  0.00  0.00    +0.023 C 
ATOM     12  C   UNL     1       4.893   6.432  -0.969  0.00  0.00    +0.029 C 
ATOM     13  O   UNL     1       3.677   4.620  -2.087  0.00  0.00    -0.172 OA
ATOM     14  C   UNL     1       1.122   6.523  -2.790  0.00  0.00    +0.160 C 
ATOM     15  O   UNL     1       4.604   5.851  -3.690  0.00  0.00    -0.294 OA
ATOM     16  C   UNL     1       5.017   8.018  -4.336  0.00  0.00    +0.063 C 
ENDROOT
BRANCH   1  18
ATOM     17  C   UNL     1       4.290   4.935  -6.378  0.00  0.00    +0.249 C 
ATOM     18  N   UNL     1       4.716   6.249  -6.022  0.00  0.00    -0.173 NA
ATOM     19  O   UNL     1       3.118   4.661  -6.086  0.00  0.00    -0.273 OA
BRANCH  17  34
ATOM     20  C   UNL     1       3.924   4.615 -10.145  0.00  0.00    +0.090 C 
ATOM     21  N   UNL     1       3.525   4.885  -9.918  0.00  0.00    -0.268 NA
ATOM     22  C   UNL     1       3.594   6.464  -9.665  0.00  0.00    +0.084 C 
ATOM     23  C   UNL     1       5.200   6.351  -9.432  0.00  0.00    -0.011 C 
ATOM     24  C   UNL     1       6.109   6.488 -10.513  0.00  0.00    -0.002 A 
ATOM     25  C   UNL     1       5.800   6.259 -11.857  0.00  0.00    +0.015 A 
ATOM     26  C   UNL     1       6.555   5.504 -12.709  0.00  0.00    +0.081 A 
ATOM     27  N   UNL     1       5.671   4.864 -13.513  0.00  0.00    -0.244 NA
ATOM     28  C   UNL     1       4.400   5.163 -13.148  0.00  0.00    +0.095 A 
ATOM     29  C   UNL     1       7.879   5.299 -12.335  0.00  0.00    +0.019 A 
ATOM     30  C   UNL     1       8.342   5.830 -11.133  0.00  0.00    +0.002 A 
ATOM     31  C   UNL     1       4.458   5.881 -11.960  0.00  0.00    +0.000 A 
ATOM     32  C   UNL     1       7.459   6.364 -10.193  0.00  0.00    -0.000 A 
ATOM     33  C   UNL     1       5.358   5.921  -8.231  0.00  0.00    -0.019 C 
ATOM     34  C   UNL     1       4.814   4.437  -7.832  0.00  0.00    +0.116 C 
ATOM     35  C   UNL     1       3.613   6.846 -11.281  0.00  0.00    +0.048 C 
ATOM     36  C   UNL     1       3.310   4.607  -8.502  0.00  0.00    +0.086 C 
ENDBRANCH  17  34
ENDBRANCH   1  18
BRANCH  14  37
ATOM     37  C   UNL     1       0.180   5.343  -3.474  0.00  0.00    +0.056 C 
BRANCH  37  38
ATOM     38  C   UNL     1      -1.008   5.895  -4.063  0.00  0.00    -0.020 A 
ATOM     39  C   UNL     1      -1.147   7.284  -3.995  0.00  0.00    -0.004 A 
ATOM     40  C   UNL     1      -2.137   7.942  -4.701  0.00  0.00    -0.000 A 
ATOM     41  C   UNL     1      -2.912   7.183  -5.569  0.00  0.00    -0.000 A 
ATOM     42  C   UNL     1      -2.290   6.071  -6.118  0.00  0.00    -0.000 A 
ATOM     43  C   UNL     1      -1.339   5.451  -5.344  0.00  0.00    -0.004 A 
ENDBRANCH  37  38
ENDBRANCH  14  37
TORSDOF 4
ENDMDL
MODEL 2
REMARK VINA RESULT:     -11.3      2.800      9.025
REMARK  Name = 
REMARK  4 active torsions:
REMARK  status: ('A' for Active; 'I' for Inactive)
REMARK    1  A    between atoms: C_4  and  C_5
REMARK    2  A    between atoms: N_7  and  C_8
REMARK    3  A    between atoms: C_20  and  C_21
REMARK    4  A    between atoms: C_21  and  C_22
REMARK                            x       y       z     vdW  Elec       q    Type
REMARK                         _______ _______ _______ _____ _____    ______ ____
ROOT
ATOM      1  C   UNL     1       4.399   6.017  -8.851  0.00  0.00    +0.243 C 
ATOM      2  C   UNL     1       3.658   5.436  -9.985  0.00  0.00    +0.274 C 
ATOM      3  O   UNL     1       2.757   4.565  -9.877  0.00  0.00    -0.270 OA
ATOM      4  N   UNL     1       4.106   6.149 -11.153  0.00  0.00    -0.225 N 
ATOM      5  C   UNL     1       5.313   6.753 -10.763  0.00  0.00    +0.307 C 
ATOM      6  C   UNL     1       6.383   5.521 -11.024  0.00  0.00    +0.149 C 
ATOM      7  N   UNL     1       6.513   5.869 -12.563  0.00  0.00    -0.273 N 
ATOM      8  C   UNL     1       5.270   6.125 -13.230  0.00  0.00    +0.244 C 
ATOM      9  O   UNL     1       5.366   5.751 -14.443  0.00  0.00    -0.273 OA
ATOM     10  C   UNL     1       7.831   5.405 -12.857  0.00  0.00    +0.094 C 
ATOM     11  C   UNL     1       8.627   5.722 -11.623  0.00  0.00    +0.023 C 
ATOM     12  C   UNL     1       7.693   6.477 -10.684  0.00  0.00    +0.029 C 
ATOM     13  O   UNL     1       5.780   7.838 -11.393  0.00  0.00    -0.172 OA
ATOM     14  C   UNL     1       4.109   5.253 -12.474  0.00  0.00    +0.160 C 
ATOM     15  O   UNL     1       5.236   6.944  -9.431  0.00  0.00    -0.294 OA
ATOM     16  C   UNL     1       5.337   5.003  -8.204  0.00  0.00    +0.063 C 
ENDROOT
BRANCH   1  18
ATOM     17  C   UNL     1       3.697   6.199  -6.511  0.00  0.00    +0.249 C 
ATOM     18  N   UNL     1       3.493   6.599  -7.864  0.00  0.00    -0.173 NA
ATOM     19  O   UNL     1       4.881   6.145  -6.148  0.00  0.00    -0.273 OA
BRANCH  17  34
ATOM     20  C   UNL     1       0.188   7.240  -5.495  0.00  0.00    +0.090 C 
ATOM     21  N   UNL     1       0.209   7.009  -5.975  0.00  0.00    -0.268 NA
ATOM     22  C   UNL     1       0.104   5.424  -6.171  0.00  0.00    +0.084 C 
ATOM     23  C   UNL     1       0.859   5.205  -4.746  0.00  0.00    -0.011 C 
ATOM     24  C   UNL     1       0.125   5.100  -3.536  0.00  0.00    -0.002 A 
ATOM     25  C   UNL     1      -1.158   5.615  -3.327  0.00  0.00    +0.015 A 
ATOM     26  C   UNL     1      -1.528   6.360  -2.245  0.00  0.00    +0.081 A 
ATOM     27  N   UNL     1      -2.405   7.281  -2.715  0.00  0.00    -0.244 NA
ATOM     28  C   UNL     1      -2.545   7.155  -4.058  0.00  0.00    +0.095 A 
ATOM     29  C   UNL     1      -0.713   6.256  -1.122  0.00  0.00    +0.019 A 
ATOM     30  C   UNL     1       0.420   5.447  -1.171  0.00  0.00    +0.002 A 
ATOM     31  C   UNL     1      -1.597   6.240  -4.499  0.00  0.00    +0.000 A 
ATOM     32  C   UNL     1       0.880   4.922  -2.380  0.00  0.00    -0.000 A 
ATOM     33  C   UNL     1       2.112   5.380  -4.974  0.00  0.00    -0.019 C 
ATOM     34  C   UNL     1       2.641   6.843  -5.460  0.00  0.00    +0.116 C 
ATOM     35  C   UNL     1      -1.463   5.337  -5.627  0.00  0.00    +0.048 C 
ATOM     36  C   UNL     1       1.505   7.066  -6.643  0.00  0.00    +0.086 C 
ENDBRANCH  17  34
ENDBRANCH   1  18
BRANCH  14  37
ATOM     37  C   UNL     1       2.814   6.094 -13.077  0.00  0.00    +0.056 C 
BRANCH  37  38
ATOM     38  C   UNL     1       1.694   6.048 -12.180  0.00  0.00    -0.020 A 
ATOM     39  C   UNL     1       0.914   7.205 -12.100  0.00  0.00    -0.004 A 
ATOM     40  C   UNL     1      -0.297   7.210 -11.433  0.00  0.00    -0.000 A 
ATOM     41  C   UNL     1      -0.761   5.995 -10.946  0.00  0.00    -0.000 A 
ATOM     42  C   UNL     1      -0.364   4.869 -11.654  0.00  0.00    -0.000 A 
ATOM     43  C   UNL     1       0.867   4.927 -12.264  0.00  0.00    -0.004 A 
ENDBRANCH  37  38
ENDBRANCH  14  37
TORSDOF 4
ENDMDL
MODEL 3
REMARK VINA RESULT:     -11.0      1.636      2.199
REMARK  Name = 
REMARK  4 active torsions:
REMARK  status: ('A' for Active; 'I' for Inactive)
REMARK    1  A    between atoms: C_4  and  C_5
REMARK    2  A    between atoms: N_7  and  C_8
REMARK    3  A    between atoms: C_20  and  C_21
REMARK    4  A    between atoms: C_21  and  C_22
REMARK                            x       y       z     vdW  Elec       q    Type
REMARK                         _______ _______ _______ _____ _____    ______ ____
ROOT
ATOM      1  C   UNL     1       3.298   6.002  -4.753  0.00  0.00    +0.243 C 
ATOM      2  C   UNL     1       1.925   6.404  -4.393  0.00  0.00    +0.274 C 
ATOM      3  O   UNL     1       1.166   7.085  -5.130  0.00  0.00    -0.270 OA
ATOM      4  N   UNL     1       1.648   5.766  -3.132  0.00  0.00    -0.225 N 
ATOM      5  C   UNL     1       2.910   5.417  -2.622  0.00  0.00    +0.307 C 
ATOM      6  C   UNL     1       3.355   6.828  -1.886  0.00  0.00    +0.149 C 
ATOM      7  N   UNL     1       2.542   6.478  -0.572  0.00  0.00    -0.273 N 
ATOM      8  C   UNL     1       1.221   5.970  -0.799  0.00  0.00    +0.244 C 
ATOM      9  O   UNL     1       0.468   6.330   0.163  0.00  0.00    -0.273 OA
ATOM     10  C   UNL     1       3.282   7.183   0.425  0.00  0.00    +0.094 C 
ATOM     11  C   UNL     1       4.715   7.054  -0.006  0.00  0.00    +0.023 C 
ATOM     12  C   UNL     1       4.721   6.152  -1.236  0.00  0.00    +0.029 C 
ATOM     13  O   UNL     1       3.046   4.430  -1.728  0.00  0.00    -0.172 OA
ATOM     14  C   UNL     1       0.672   6.616  -2.200  0.00  0.00    +0.160 C 
ATOM     15  O   UNL     1       3.721   5.243  -3.685  0.00  0.00    -0.294 OA
ATOM     16  C   UNL     1       4.250   7.193  -4.781  0.00  0.00    +0.063 C 
ENDROOT
BRANCH   1  18
ATOM     17  C   UNL     1       2.880   5.997  -7.167  0.00  0.00    +0.249 C 
ATOM     18  N   UNL     1       3.327   5.277  -6.020  0.00  0.00    -0.173 NA
ATOM     19  O   UNL     1       3.274   7.170  -7.241  0.00  0.00    -0.273 OA
BRANCH  17  34
ATOM     20  C   UNL     1       1.267   4.792 -10.387  0.00  0.00    +0.090 C 
ATOM     21  N   UNL     1       0.960   5.130 -10.112  0.00  0.00    -0.268 NA
ATOM     22  C   UNL     1       1.056   6.718 -10.293  0.00  0.00    +0.084 C 
ATOM     23  C   UNL     1       2.649   6.581 -10.596  0.00  0.00    -0.011 C 
ATOM     24  C   UNL     1       3.131   6.404 -11.919  0.00  0.00    -0.002 A 
ATOM     25  C   UNL     1       2.392   5.872 -12.980  0.00  0.00    +0.015 A 
ATOM     26  C   UNL     1       2.838   4.895 -13.823  0.00  0.00    +0.081 A 
ATOM     27  N   UNL     1       1.756   4.125 -14.098  0.00  0.00    -0.244 NA
ATOM     28  C   UNL     1       0.675   4.570 -13.411  0.00  0.00    +0.095 A 
ATOM     29  C   UNL     1       4.217   4.718 -13.879  0.00  0.00    +0.019 A 
ATOM     30  C   UNL     1       5.042   5.500 -13.074  0.00  0.00    +0.002 A 
ATOM     31  C   UNL     1       1.109   5.550 -12.527  0.00  0.00    +0.000 A 
ATOM     32  C   UNL     1       4.513   6.291 -12.053  0.00  0.00    -0.000 A 
ATOM     33  C   UNL     1       3.221   6.448  -9.452  0.00  0.00    -0.019 C 
ATOM     34  C   UNL     1       2.896   5.135  -8.542  0.00  0.00    +0.116 C 
ATOM     35  C   UNL     1       0.512   6.694 -11.862  0.00  0.00    +0.048 C 
ATOM     36  C   UNL     1       1.248   5.216  -8.684  0.00  0.00    +0.086 C 
ENDBRANCH  17  34
ENDBRANCH   1  18
BRANCH  14  37
ATOM     37  C   UNL     1      -0.553   5.526  -2.446  0.00  0.00    +0.056 C 
BRANCH  37  38
ATOM     38  C   UNL     1      -1.530   6.034  -3.369  0.00  0.00    -0.020 A 
ATOM     39  C   UNL     1      -1.579   7.421  -3.521  0.00  0.00    -0.004 A 
ATOM     40  C   UNL     1      -2.328   8.008  -4.523  0.00  0.00    -0.000 A 
ATOM     41  C   UNL     1      -2.937   7.162  -5.441  0.00  0.00    -0.000 A 
ATOM     42  C   UNL     1      -2.289   5.958  -5.674  0.00  0.00    -0.000 A 
ATOM     43  C   UNL     1      -1.589   5.420  -4.621  0.00  0.00    -0.004 A 
ENDBRANCH  37  38
ENDBRANCH  14  37
TORSDOF 4
ENDMDL
MODEL 4
REMARK VINA RESULT:     -10.5      2.954     10.000
REMARK  Name = 
REMARK  4 active torsions:
REMARK  status: ('A' for Active; 'I' for Inactive)
REMARK    1  A    between atoms: C_4  and  C_5
REMARK    2  A    between atoms: N_7  and  C_8
REMARK    3  A    between atoms: C_20  and  C_21
REMARK    4  A    between atoms: C_21  and  C_22
REMARK                            x       y       z     vdW  Elec       q    Type
REMARK                         _______ _______ _______ _____ _____    ______ ____
ROOT
ATOM      1  C   UNL     1       1.567   5.942 -10.371  0.00  0.00    +0.243 C 
ATOM      2  C   UNL     1       2.938   6.324 -10.756  0.00  0.00    +0.274 C 
ATOM      3  O   UNL     1       3.716   7.005 -10.040  0.00  0.00    -0.270 OA
ATOM      4  N   UNL     1       3.188   5.670 -12.015  0.00  0.00    -0.225 N 
ATOM      5  C   UNL     1       1.914   5.329 -12.500  0.00  0.00    +0.307 C 
ATOM      6  C   UNL     1       1.473   6.737 -13.245  0.00  0.00    +0.149 C 
ATOM      7  N   UNL     1       2.261   6.364 -14.567  0.00  0.00    -0.273 N 
ATOM      8  C   UNL     1       3.580   5.844 -14.356  0.00  0.00    +0.244 C 
ATOM      9  O   UNL     1       4.320   6.185 -15.334  0.00  0.00    -0.273 OA
ATOM     10  C   UNL     1       1.513   7.067 -15.560  0.00  0.00    +0.094 C 
ATOM     11  C   UNL     1       0.085   6.958 -15.105  0.00  0.00    +0.023 C 
ATOM     12  C   UNL     1       0.089   6.070 -13.866  0.00  0.00    +0.029 C 
ATOM     13  O   UNL     1       1.753   4.334 -13.381  0.00  0.00    -0.172 OA
ATOM     14  C   UNL     1       4.158   6.499 -12.972  0.00  0.00    +0.160 C 
ATOM     15  O   UNL     1       1.119   5.176 -11.423  0.00  0.00    -0.294 OA
ATOM     16  C   UNL     1       0.628   7.143 -10.341  0.00  0.00    +0.063 C 
ENDROOT
BRANCH   1  18
ATOM     17  C   UNL     1       1.904   5.995  -7.945  0.00  0.00    +0.249 C 
ATOM     18  N   UNL     1       1.550   5.230  -9.095  0.00  0.00    -0.173 NA
ATOM     19  O   UNL     1       1.421   7.136  -7.899  0.00  0.00    -0.273 OA
BRANCH  17  34
ATOM     20  C   UNL     1       3.525   4.900  -4.689  0.00  0.00    +0.090 C 
ATOM     21  N   UNL     1       3.820   5.247  -4.965  0.00  0.00    -0.268 NA
ATOM     22  C   UNL     1       3.654   6.831  -4.805  0.00  0.00    +0.084 C 
ATOM     23  C   UNL     1       2.064   6.629  -4.520  0.00  0.00    -0.011 C 
ATOM     24  C   UNL     1       1.573   6.447  -3.201  0.00  0.00    -0.002 A 
ATOM     25  C   UNL     1       2.320   5.961  -2.124  0.00  0.00    +0.015 A 
ATOM     26  C   UNL     1       1.905   4.975  -1.275  0.00  0.00    +0.081 A 
ATOM     27  N   UNL     1       3.016   4.256  -0.977  0.00  0.00    -0.244 NA
ATOM     28  C   UNL     1       4.086   4.739  -1.656  0.00  0.00    +0.095 A 
ATOM     29  C   UNL     1       0.535   4.739  -1.234  0.00  0.00    +0.019 A 
ATOM     30  C   UNL     1      -0.312   5.475  -2.059  0.00  0.00    +0.002 A 
ATOM     31  C   UNL     1       3.622   5.690  -2.557  0.00  0.00    +0.000 A 
ATOM     32  C   UNL     1       0.196   6.276  -3.083  0.00  0.00    -0.000 A 
ATOM     33  C   UNL     1       1.514   6.458  -5.669  0.00  0.00    -0.019 C 
ATOM     34  C   UNL     1       1.907   5.150  -6.559  0.00  0.00    +0.116 C 
ATOM     35  C   UNL     1       4.178   6.850  -3.229  0.00  0.00    +0.048 C 
ATOM     36  C   UNL     1       3.548   5.304  -6.397  0.00  0.00    +0.086 C 
ENDBRANCH  17  34
ENDBRANCH   1  18
BRANCH  14  37
ATOM     37  C   UNL     1       5.375   5.399 -12.733  0.00  0.00    +0.056 C 
BRANCH  37  38
ATOM     38  C   UNL     1       6.415   5.938 -11.902  0.00  0.00    -0.020 A 
ATOM     39  C   UNL     1       6.456   7.329 -11.782  0.00  0.00    -0.004 A 
ATOM     40  C   UNL     1       7.275   7.946 -10.855  0.00  0.00    -0.000 A 
ATOM     41  C   UNL     1       7.967   7.128  -9.972  0.00  0.00    -0.000 A 
ATOM     42  C   UNL     1       7.357   5.921  -9.664  0.00  0.00    -0.000 A 
ATOM     43  C   UNL     1       6.583   5.351 -10.647  0.00  0.00    -0.004 A 
ENDBRANCH  37  38
ENDBRANCH  14  37
TORSDOF 4
ENDMDL
MODEL 5
REMARK VINA RESULT:     -10.3      3.244     10.331
REMARK  Name = 
REMARK  4 active torsions:
REMARK  status: ('A' for Active; 'I' for Inactive)
REMARK    1  A    between atoms: C_4  and  C_5
REMARK    2  A    between atoms: N_7  and  C_8
REMARK    3  A    between atoms: C_20  and  C_21
REMARK    4  A    between atoms: C_21  and  C_22
REMARK                            x       y       z     vdW  Elec       q    Type
REMARK                         _______ _______ _______ _____ _____    ______ ____
ROOT
ATOM      1  C   UNL     1       0.654   6.190 -10.949  0.00  0.00    +0.243 C 
ATOM      2  C   UNL     1       2.109   6.419 -11.025  0.00  0.00    +0.274 C 
ATOM      3  O   UNL     1       2.779   7.045 -10.163  0.00  0.00    -0.270 OA
ATOM      4  N   UNL     1       2.559   5.697 -12.187  0.00  0.00    -0.225 N 
ATOM      5  C   UNL     1       1.395   5.468 -12.939  0.00  0.00    +0.307 C 
ATOM      6  C   UNL     1       1.280   6.884 -13.783  0.00  0.00    +0.149 C 
ATOM      7  N   UNL     1       2.296   6.385 -14.891  0.00  0.00    -0.273 N 
ATOM      8  C   UNL     1       3.474   5.744 -14.384  0.00  0.00    +0.244 C 
ATOM      9  O   UNL     1       4.443   5.972 -15.178  0.00  0.00    -0.273 OA
ATOM     10  C   UNL     1       1.863   7.121 -16.036  0.00  0.00    +0.094 C 
ATOM     11  C   UNL     1       0.367   7.173 -15.908  0.00  0.00    +0.023 C 
ATOM     12  C   UNL     1       0.004   6.336 -14.687  0.00  0.00    +0.029 C 
ATOM     13  O   UNL     1       1.327   4.461 -13.820  0.00  0.00    -0.172 OA
ATOM     14  C   UNL     1       3.799   6.389 -12.915  0.00  0.00    +0.160 C 
ATOM     15  O   UNL     1       0.371   5.435 -12.064  0.00  0.00    -0.294 OA
ATOM     16  C   UNL     1      -0.135   7.480 -11.146  0.00  0.00    +0.063 C 
ENDROOT
BRANCH   1  18
ATOM     17  C   UNL     1       0.828   6.094  -8.507  0.00  0.00    +0.249 C 
ATOM     18  N   UNL     1       0.283   5.532  -9.700  0.00  0.00    -0.173 NA
ATOM     19  O   UNL     1       0.820   7.332  -8.454  0.00  0.00    -0.273 OA
BRANCH  17  34
ATOM     20  C   UNL     1       1.531   4.926  -4.962  0.00  0.00    +0.090 C 
ATOM     21  N   UNL     1       1.922   5.225  -5.166  0.00  0.00    -0.268 NA
ATOM     22  C   UNL     1       1.924   6.822  -5.059  0.00  0.00    +0.084 C 
ATOM     23  C   UNL     1       0.299   6.824  -5.139  0.00  0.00    -0.011 C 
ATOM     24  C   UNL     1      -0.493   6.749  -3.964  0.00  0.00    -0.002 A 
ATOM     25  C   UNL     1      -0.072   6.214  -2.743  0.00  0.00    +0.015 A 
ATOM     26  C   UNL     1      -0.787   5.317  -2.003  0.00  0.00    +0.081 A 
ATOM     27  N   UNL     1       0.129   4.480  -1.456  0.00  0.00    -0.244 NA
ATOM     28  C   UNL     1       1.376   4.805  -1.879  0.00  0.00    +0.095 A 
ATOM     29  C   UNL     1      -2.150   5.250  -2.270  0.00  0.00    +0.019 A 
ATOM     30  C   UNL     1      -2.692   6.053  -3.271  0.00  0.00    +0.002 A 
ATOM     31  C   UNL     1       1.249   5.772  -2.869  0.00  0.00    +0.000 A 
ATOM     32  C   UNL     1      -1.872   6.751  -4.159  0.00  0.00    -0.000 A 
ATOM     33  C   UNL     1       0.002   6.680  -6.382  0.00  0.00    -0.019 C 
ATOM     34  C   UNL     1       0.416   5.304  -7.151  0.00  0.00    +0.116 C 
ATOM     35  C   UNL     1       2.082   6.833  -3.406  0.00  0.00    +0.048 C 
ATOM     36  C   UNL     1       1.985   5.263  -6.623  0.00  0.00    +0.086 C 
ENDBRANCH  17  34
ENDBRANCH   1  18
BRANCH  14  37
ATOM     37  C   UNL     1       4.810   5.182 -12.396  0.00  0.00    +0.056 C 
BRANCH  37  38
ATOM     38  C   UNL     1       5.943   5.713 -11.692  0.00  0.00    -0.020 A 
ATOM     39  C   UNL     1       6.184   7.081 -11.842  0.00  0.00    -0.004 A 
ATOM     40  C   UNL     1       7.113   7.738 -11.058  0.00  0.00    -0.000 A 
ATOM     41  C   UNL     1       7.713   7.011 -10.038  0.00  0.00    -0.000 A 
ATOM     42  C   UNL     1       6.950   5.985  -9.498  0.00  0.00    -0.000 A 
ATOM     43  C   UNL     1       6.071   5.357 -10.348  0.00  0.00    -0.004 A 
ENDBRANCH  37  38
ENDBRANCH  14  37
TORSDOF 4
ENDMDL
MODEL 6
REMARK VINA RESULT:     -10.0      2.749      8.795
REMARK  Name = 
REMARK  4 active torsions:
REMARK  status: ('A' for Active; 'I' for Inactive)
REMARK    1  A    between atoms: C_4  and  C_5
REMARK    2  A    between atoms: N_7  and  C_8
REMARK    3  A    between atoms: C_20  and  C_21
REMARK    4  A    between atoms: C_21  and  C_22
REMARK                            x       y       z     vdW  Elec       q    Type
REMARK                         _______ _______ _______ _____ _____    ______ ____
ROOT
ATOM      1  C   UNL     1       5.019   5.324  -8.612  0.00  0.00    +0.243 C 
ATOM      2  C   UNL     1       4.152   4.888  -9.723  0.00  0.00    +0.274 C 
ATOM      3  O   UNL     1       3.378   3.898  -9.678  0.00  0.00    -0.270 OA
ATOM      4  N   UNL     1       4.312   5.879 -10.756  0.00  0.00    -0.225 N 
ATOM      5  C   UNL     1       5.501   6.552 -10.426  0.00  0.00    +0.307 C 
ATOM      6  C   UNL     1       6.628   5.557 -11.114  0.00  0.00    +0.149 C 
ATOM      7  N   UNL     1       6.448   6.226 -12.538  0.00  0.00    -0.273 N 
ATOM      8  C   UNL     1       5.087   6.439 -12.936  0.00  0.00    +0.244 C 
ATOM      9  O   UNL     1       5.005   6.336 -14.203  0.00  0.00    -0.273 OA
ATOM     10  C   UNL     1       7.733   6.018 -13.123  0.00  0.00    +0.094 C 
ATOM     11  C   UNL     1       8.698   6.184 -11.983  0.00  0.00    +0.023 C 
ATOM     12  C   UNL     1       7.872   6.596 -10.770  0.00  0.00    +0.029 C 
ATOM     13  O   UNL     1       5.736   7.796 -10.861  0.00  0.00    -0.172 OA
ATOM     14  C   UNL     1       4.173   5.280 -12.228  0.00  0.00    +0.160 C 
ATOM     15  O   UNL     1       5.641   6.455  -9.089  0.00  0.00    -0.294 OA
ATOM     16  C   UNL     1       6.154   4.338  -8.357  0.00  0.00    +0.063 C 
ENDROOT
BRANCH   1  18
ATOM     17  C   UNL     1       3.637   6.846  -7.280  0.00  0.00    +0.249 C 
ATOM     18  N   UNL     1       4.246   5.562  -7.396  0.00  0.00    -0.173 NA
ATOM     19  O   UNL     1       3.105   7.275  -8.315  0.00  0.00    -0.273 OA
BRANCH  17  34
ATOM     20  C   UNL     1       2.120   5.583  -4.036  0.00  0.00    +0.090 C 
ATOM     21  N   UNL     1       2.369   5.202  -4.313  0.00  0.00    -0.268 NA
ATOM     22  C   UNL     1       3.935   4.911  -4.152  0.00  0.00    +0.084 C 
ATOM     23  C   UNL     1       4.192   6.491  -3.857  0.00  0.00    -0.011 C 
ATOM     24  C   UNL     1       4.155   7.005  -2.535  0.00  0.00    -0.002 A 
ATOM     25  C   UNL     1       3.474   6.420  -1.463  0.00  0.00    +0.015 A 
ATOM     26  C   UNL     1       2.645   7.092  -0.611  0.00  0.00    +0.081 A 
ATOM     27  N   UNL     1       1.640   6.230  -0.320  0.00  0.00    -0.244 NA
ATOM     28  C   UNL     1       1.800   5.071  -1.006  0.00  0.00    +0.095 A 
ATOM     29  C   UNL     1       2.809   8.472  -0.560  0.00  0.00    +0.019 A 
ATOM     30  C   UNL     1       3.756   9.081  -1.380  0.00  0.00    +0.002 A 
ATOM     31  C   UNL     1       2.845   5.252  -1.904  0.00  0.00    +0.000 A 
ATOM     32  C   UNL     1       4.382   8.373  -2.408  0.00  0.00    -0.000 A 
ATOM     33  C   UNL     1       4.187   7.074  -5.002  0.00  0.00    -0.019 C 
ATOM     34  C   UNL     1       2.823   7.074  -5.895  0.00  0.00    +0.116 C 
ATOM     35  C   UNL     1       3.801   4.393  -2.579  0.00  0.00    +0.048 C 
ATOM     36  C   UNL     1       2.504   5.457  -5.744  0.00  0.00    +0.086 C 
ENDBRANCH  17  34
ENDBRANCH   1  18
BRANCH  14  37
ATOM     37  C   UNL     1       2.713   6.039 -12.427  0.00  0.00    +0.056 C 
BRANCH  37  38
ATOM     38  C   UNL     1       1.778   5.654 -11.408  0.00  0.00    -0.020 A 
ATOM     39  C   UNL     1       1.090   6.690 -10.771  0.00  0.00    -0.004 A 
ATOM     40  C   UNL     1       0.026   6.433  -9.926  0.00  0.00    -0.000 A 
ATOM     41  C   UNL     1      -0.406   5.117  -9.827  0.00  0.00    -0.000 A 
ATOM     42  C   UNL     1      -0.208   4.331 -10.953  0.00  0.00    -0.000 A 
ATOM     43  C   UNL     1       0.889   4.625 -11.727  0.00  0.00    -0.004 A 
ENDBRANCH  37  38
ENDBRANCH  14  37
TORSDOF 4
ENDMDL
MODEL 7
REMARK VINA RESULT:      -9.9      1.985      4.641
REMARK  Name = 
REMARK  4 active torsions:
REMARK  status: ('A' for Active; 'I' for Inactive)
REMARK    1  A    between atoms: C_4  and  C_5
REMARK    2  A    between atoms: N_7  and  C_8
REMARK    3  A    between atoms: C_20  and  C_21
REMARK    4  A    between atoms: C_21  and  C_22
REMARK                            x       y       z     vdW  Elec       q    Type
REMARK                         _______ _______ _______ _____ _____    ______ ____
ROOT
ATOM      1  C   UNL     1       0.212   6.099  -6.361  0.00  0.00    +0.243 C 
ATOM      2  C   UNL     1       1.064   5.587  -5.272  0.00  0.00    +0.274 C 
ATOM      3  O   UNL     1       2.003   4.764  -5.427  0.00  0.00    -0.270 OA
ATOM      4  N   UNL     1       0.659   6.303  -4.089  0.00  0.00    -0.225 N 
ATOM      5  C   UNL     1      -0.604   6.830  -4.404  0.00  0.00    +0.307 C 
ATOM      6  C   UNL     1      -1.581   5.547  -4.041  0.00  0.00    +0.149 C 
ATOM      7  N   UNL     1      -1.621   5.926  -2.504  0.00  0.00    -0.273 N 
ATOM      8  C   UNL     1      -0.351   6.267  -1.934  0.00  0.00    +0.244 C 
ATOM      9  O   UNL     1      -0.340   5.918  -0.709  0.00  0.00    -0.273 OA
ATOM     10  C   UNL     1      -2.887   5.398  -2.106  0.00  0.00    +0.094 C 
ATOM     11  C   UNL     1      -3.785   5.640  -3.287  0.00  0.00    +0.023 C 
ATOM     12  C   UNL     1      -2.964   6.422  -4.306  0.00  0.00    +0.029 C 
ATOM     13  O   UNL     1      -1.085   7.903  -3.765  0.00  0.00    -0.172 OA
ATOM     14  C   UNL     1       0.801   5.441  -2.754  0.00  0.00    +0.160 C 
ATOM     15  O   UNL     1      -0.632   6.992  -5.742  0.00  0.00    -0.294 OA
ATOM     16  C   UNL     1      -0.710   5.019  -6.918  0.00  0.00    +0.063 C 
ENDROOT
BRANCH   1  18
ATOM     17  C   UNL     1       0.951   6.067  -8.697  0.00  0.00    +0.249 C 
ATOM     18  N   UNL     1       1.012   6.705  -7.422  0.00  0.00    -0.173 NA
ATOM     19  O   UNL     1      -0.179   5.704  -9.053  0.00  0.00    -0.273 OA
BRANCH  17  34
ATOM     20  C   UNL     1       4.307   7.296  -9.983  0.00  0.00    +0.090 C 
ATOM     21  N   UNL     1       4.337   7.072  -9.500  0.00  0.00    -0.268 NA
ATOM     22  C   UNL     1       4.548   5.498  -9.296  0.00  0.00    +0.084 C 
ATOM     23  C   UNL     1       3.705   5.214 -10.658  0.00  0.00    -0.011 C 
ATOM     24  C   UNL     1       4.352   5.135 -11.919  0.00  0.00    -0.002 A 
ATOM     25  C   UNL     1       5.583   5.720 -12.229  0.00  0.00    +0.015 A 
ATOM     26  C   UNL     1       5.827   6.470 -13.344  0.00  0.00    +0.081 A 
ATOM     27  N   UNL     1       6.680   7.447 -12.949  0.00  0.00    -0.244 NA
ATOM     28  C   UNL     1       6.927   7.349 -11.620  0.00  0.00    +0.095 A 
ATOM     29  C   UNL     1       4.939   6.301 -14.401  0.00  0.00    +0.019 A 
ATOM     30  C   UNL     1       3.862   5.428 -14.259  0.00  0.00    +0.002 A 
ATOM     31  C   UNL     1       6.069   6.387 -11.100  0.00  0.00    +0.000 A 
ATOM     32  C   UNL     1       3.525   4.896 -13.013  0.00  0.00    -0.000 A 
ATOM     33  C   UNL     1       2.464   5.320 -10.339  0.00  0.00    -0.019 C 
ATOM     34  C   UNL     1       1.886   6.757  -9.831  0.00  0.00    +0.116 C 
ATOM     35  C   UNL     1       6.073   5.495  -9.955  0.00  0.00    +0.048 C 
ATOM     36  C   UNL     1       3.092   7.063  -8.739  0.00  0.00    +0.086 C 
ENDBRANCH  17  34
ENDBRANCH   1  18
BRANCH  14  37
ATOM     37  C   UNL     1       2.086   6.366  -2.263  0.00  0.00    +0.056 C 
BRANCH  37  38
ATOM     38  C   UNL     1       3.124   6.391  -3.254  0.00  0.00    -0.020 A 
ATOM     39  C   UNL     1       3.757   7.620  -3.461  0.00  0.00    -0.004 A 
ATOM     40  C   UNL     1       4.899   7.719  -4.233  0.00  0.00    -0.000 A 
ATOM     41  C   UNL     1       5.457   6.536  -4.700  0.00  0.00    -0.000 A 
ATOM     42  C   UNL     1       5.252   5.417  -3.905  0.00  0.00    -0.000 A 
ATOM     43  C   UNL     1       4.079   5.375  -3.190  0.00  0.00    -0.004 A 
ENDBRANCH  37  38
ENDBRANCH  14  37
TORSDOF 4
ENDMDL
MODEL 8
REMARK VINA RESULT:      -9.2      2.771      9.077
REMARK  Name = 
REMARK  4 active torsions:
REMARK  status: ('A' for Active; 'I' for Inactive)
REMARK    1  A    between atoms: C_4  and  C_5
REMARK    2  A    between atoms: N_7  and  C_8
REMARK    3  A    between atoms: C_20  and  C_21
REMARK    4  A    between atoms: C_21  and  C_22
REMARK                            x       y       z     vdW  Elec       q    Type
REMARK                         _______ _______ _______ _____ _____    ______ ____
ROOT
ATOM      1  C   UNL     1       5.046   5.477  -8.715  0.00  0.00    +0.243 C 
ATOM      2  C   UNL     1       4.131   5.169  -9.830  0.00  0.00    +0.274 C 
ATOM      3  O   UNL     1       3.215   4.308  -9.783  0.00  0.00    -0.270 OA
ATOM      4  N   UNL     1       4.447   6.115 -10.869  0.00  0.00    -0.225 N 
ATOM      5  C   UNL     1       5.722   6.601 -10.534  0.00  0.00    +0.307 C 
ATOM      6  C   UNL     1       6.689   5.442 -11.206  0.00  0.00    +0.149 C 
ATOM      7  N   UNL     1       6.623   6.118 -12.636  0.00  0.00    -0.273 N 
ATOM      8  C   UNL     1       5.313   6.532 -13.047  0.00  0.00    +0.244 C 
ATOM      9  O   UNL     1       5.225   6.432 -14.313  0.00  0.00    -0.273 OA
ATOM     10  C   UNL     1       7.866   5.711 -13.209  0.00  0.00    +0.094 C 
ATOM     11  C   UNL     1       8.837   5.738 -12.062  0.00  0.00    +0.023 C 
ATOM     12  C   UNL     1       8.075   6.282 -10.859  0.00  0.00    +0.029 C 
ATOM     13  O   UNL     1       6.146   7.792 -10.976  0.00  0.00    -0.172 OA
ATOM     14  C   UNL     1       4.229   5.531 -12.337  0.00  0.00    +0.160 C 
ATOM     15  O   UNL     1       5.836   6.497  -9.196  0.00  0.00    -0.294 OA
ATOM     16  C   UNL     1       6.016   4.332  -8.443  0.00  0.00    +0.063 C 
ENDROOT
BRANCH   1  18
ATOM     17  C   UNL     1       3.537   7.037  -7.578  0.00  0.00    +0.249 C 
ATOM     18  N   UNL     1       4.310   5.841  -7.507  0.00  0.00    -0.173 NA
ATOM     19  O   UNL     1       2.900   7.193  -8.630  0.00  0.00    -0.273 OA
BRANCH  17  34
ATOM     20  C   UNL     1       0.415   7.244  -5.425  0.00  0.00    +0.090 C 
ATOM     21  N   UNL     1       0.326   7.028  -5.904  0.00  0.00    -0.268 NA
ATOM     22  C   UNL     1       0.504   5.462  -6.184  0.00  0.00    +0.084 C 
ATOM     23  C   UNL     1       1.711   5.411  -5.093  0.00  0.00    -0.011 C 
ATOM     24  C   UNL     1       1.451   5.133  -3.726  0.00  0.00    -0.002 A 
ATOM     25  C   UNL     1       0.228   5.340  -3.081  0.00  0.00    +0.015 A 
ATOM     26  C   UNL     1       0.082   5.975  -1.881  0.00  0.00    +0.081 A 
ATOM     27  N   UNL     1      -1.075   6.675  -1.974  0.00  0.00    -0.244 NA
ATOM     28  C   UNL     1      -1.615   6.529  -3.209  0.00  0.00    +0.095 A 
ATOM     29  C   UNL     1       1.221   6.051  -1.086  0.00  0.00    +0.019 A 
ATOM     30  C   UNL     1       2.421   5.521  -1.555  0.00  0.00    +0.002 A 
ATOM     31  C   UNL     1      -0.691   5.857  -4.000  0.00  0.00    +0.000 A 
ATOM     32  C   UNL     1       2.562   5.124  -2.886  0.00  0.00    -0.000 A 
ATOM     33  C   UNL     1       2.753   5.868  -5.691  0.00  0.00    -0.019 C 
ATOM     34  C   UNL     1       2.770   7.417  -6.199  0.00  0.00    +0.116 C 
ATOM     35  C   UNL     1      -0.743   5.017  -5.182  0.00  0.00    +0.048 C 
ATOM     36  C   UNL     1       1.290   7.383  -6.940  0.00  0.00    +0.086 C 
ENDBRANCH  17  34
ENDBRANCH   1  18
BRANCH  14  37
ATOM     37  C   UNL     1       2.902   6.502 -12.554  0.00  0.00    +0.056 C 
BRANCH  37  38
ATOM     38  C   UNL     1       1.768   5.748 -13.009  0.00  0.00    -0.020 A 
ATOM     39  C   UNL     1       2.028   4.730 -13.930  0.00  0.00    -0.004 A 
ATOM     40  C   UNL     1       1.056   3.812 -14.280  0.00  0.00    -0.000 A 
ATOM     41  C   UNL     1      -0.152   3.871 -13.596  0.00  0.00    -0.000 A 
ATOM     42  C   UNL     1      -0.085   4.350 -12.296  0.00  0.00    -0.000 A 
ATOM     43  C   UNL     1       0.887   5.284 -12.031  0.00  0.00    -0.004 A 
ENDBRANCH  37  38
ENDBRANCH  14  37
TORSDOF 4
ENDMDL
MODEL 9
REMARK VINA RESULT:      -9.1      2.854      5.301
REMARK  Name = 
REMARK  4 active torsions:
REMARK  status: ('A' for Active; 'I' for Inactive)
REMARK    1  A    between atoms: C_4  and  C_5
REMARK    2  A    between atoms: N_7  and  C_8
REMARK    3  A    between atoms: C_20  and  C_21
REMARK    4  A    between atoms: C_21  and  C_22
REMARK                            x       y       z     vdW  Elec       q    Type
REMARK                         _______ _______ _______ _____ _____    ______ ____
ROOT
ATOM      1  C   UNL     1      -0.332   5.415  -6.458  0.00  0.00    +0.243 C 
ATOM      2  C   UNL     1       0.590   5.012  -5.380  0.00  0.00    +0.274 C 
ATOM      3  O   UNL     1       1.365   4.022  -5.437  0.00  0.00    -0.270 OA
ATOM      4  N   UNL     1       0.478   6.031  -4.369  0.00  0.00    -0.225 N 
ATOM      5  C   UNL     1      -0.727   6.692  -4.658  0.00  0.00    +0.307 C 
ATOM      6  C   UNL     1      -1.816   5.715  -3.887  0.00  0.00    +0.149 C 
ATOM      7  N   UNL     1      -1.567   6.424  -2.493  0.00  0.00    -0.273 N 
ATOM      8  C   UNL     1      -0.189   6.650  -2.169  0.00  0.00    +0.244 C 
ATOM      9  O   UNL     1      -0.044   6.583  -0.906  0.00  0.00    -0.273 OA
ATOM     10  C   UNL     1      -2.822   6.229  -1.839  0.00  0.00    +0.094 C 
ATOM     11  C   UNL     1      -3.842   6.361  -2.934  0.00  0.00    +0.023 C 
ATOM     12  C   UNL     1      -3.079   6.741  -4.198  0.00  0.00    +0.029 C 
ATOM     13  O   UNL     1      -0.945   7.948  -4.247  0.00  0.00    -0.172 OA
ATOM     14  C   UNL     1       0.692   5.474  -2.889  0.00  0.00    +0.160 C 
ATOM     15  O   UNL     1      -0.933   6.558  -5.983  0.00  0.00    -0.294 OA
ATOM     16  C   UNL     1      -1.475   4.420  -6.630  0.00  0.00    +0.063 C 
ENDROOT
BRANCH   1  18
ATOM     17  C   UNL     1       0.918   6.924  -7.929  0.00  0.00    +0.249 C 
ATOM     18  N   UNL     1       0.378   5.621  -7.718  0.00  0.00    -0.173 NA
ATOM     19  O   UNL     1       1.469   7.434  -6.943  0.00  0.00    -0.273 OA
BRANCH  17  34
ATOM     20  C   UNL     1       2.390   5.549 -11.149  0.00  0.00    +0.090 C 
ATOM     21  N   UNL     1       2.175   5.173 -10.839  0.00  0.00    -0.268 NA
ATOM     22  C   UNL     1       0.626   4.778 -10.917  0.00  0.00    +0.084 C 
ATOM     23  C   UNL     1       0.259   6.316 -11.298  0.00  0.00    -0.011 C 
ATOM     24  C   UNL     1       0.214   6.746 -12.650  0.00  0.00    -0.002 A 
ATOM     25  C   UNL     1       0.890   6.136 -13.711  0.00  0.00    +0.015 A 
ATOM     26  C   UNL     1       1.642   6.802 -14.636  0.00  0.00    +0.081 A 
ATOM     27  N   UNL     1       2.688   5.986 -14.914  0.00  0.00    -0.244 NA
ATOM     28  C   UNL     1       2.627   4.866 -14.153  0.00  0.00    +0.095 A 
ATOM     29  C   UNL     1       1.390   8.164 -14.765  0.00  0.00    +0.019 A 
ATOM     30  C   UNL     1       0.437   8.765 -13.945  0.00  0.00    +0.002 A 
ATOM     31  C   UNL     1       1.607   5.039 -13.225  0.00  0.00    +0.000 A 
ATOM     32  C   UNL     1      -0.104   8.087 -12.851  0.00  0.00    -0.000 A 
ATOM     33  C   UNL     1       0.270   6.971 -10.192  0.00  0.00    -0.019 C 
ATOM     34  C   UNL     1       1.664   7.112  -9.358  0.00  0.00    +0.116 C 
ATOM     35  C   UNL     1       0.734   4.169 -12.459  0.00  0.00    +0.048 C 
ATOM     36  C   UNL     1       2.079   5.510  -9.423  0.00  0.00    +0.086 C 
ENDBRANCH  17  34
ENDBRANCH   1  18
BRANCH  14  37
ATOM     37  C   UNL     1       2.158   6.241  -2.785  0.00  0.00    +0.056 C 
BRANCH  37  38
ATOM     38  C   UNL     1       3.014   5.891  -3.884  0.00  0.00    -0.020 A 
ATOM     39  C   UNL     1       3.635   6.951  -4.549  0.00  0.00    -0.004 A 
ATOM     40  C   UNL     1       4.632   6.728  -5.481  0.00  0.00    -0.000 A 
ATOM     41  C   UNL     1       5.070   5.421  -5.645  0.00  0.00    -0.000 A 
ATOM     42  C   UNL     1       4.972   4.607  -4.525  0.00  0.00    -0.000 A 
ATOM     43  C   UNL     1       3.937   4.869  -3.660  0.00  0.00    -0.004 A 
ENDBRANCH  37  38
ENDBRANCH  14  37
TORSDOF 4
ENDMDL
