MODEL 1
REMARK VINA RESULT:      -9.5      0.000      0.000
REMARK  Name = 
REMARK  5 active torsions:
REMARK  status: ('A' for Active; 'I' for Inactive)
REMARK    1  A    between atoms: N_10  and  C_11
REMARK    2  A    between atoms: C_11  and  C_12
REMARK    3  A    between atoms: C_12  and  N_13
REMARK    4  A    between atoms: N_16  and  C_17
REMARK    5  A    between atoms: C_21  and  C_22
REMARK                            x       y       z     vdW  Elec       q    Type
REMARK                         _______ _______ _______ _____ _____    ______ ____
ROOT
ATOM      1  N   UNL     1       3.371   5.748  -7.140  0.00  0.00    -0.268 NA
ATOM      2  C   UNL     1       2.494   4.716  -7.506  0.00  0.00    +0.094 C 
ATOM      3  C   UNL     1       1.891   3.899  -6.420  0.00  0.00    +0.108 C 
ATOM      4  N   UNL     1       1.451   4.834  -5.385  0.00  0.00    -0.305 N 
ATOM      5  C   UNL     1       2.574   5.561  -4.796  0.00  0.00    +0.108 C 
ATOM      6  C   UNL     1       3.511   6.119  -5.797  0.00  0.00    +0.094 C 
ENDROOT
BRANCH   4   7
ATOM      7  C   UNL     1       0.276   5.625  -5.604  0.00  0.00    +0.048 A 
ATOM      8  C   UNL     1      -0.254   6.443  -4.622  0.00  0.00    +0.018 A 
ATOM      9  C   UNL     1      -1.598   6.790  -4.620  0.00  0.00    +0.073 A 
ATOM     10  C   UNL     1      -2.478   5.935  -5.275  0.00  0.00    +0.004 A 
ATOM     11  C   UNL     1      -1.976   5.373  -6.443  0.00  0.00    +0.001 A 
ATOM     12  C   UNL     1      -0.603   5.245  -6.611  0.00  0.00    +0.015 A 
BRANCH   9  13
ATOM     13  C   UNL     1      -2.119   7.513  -3.421  0.00  0.00    +0.419 C 
ATOM     14  F   UNL     1      -2.109   8.852  -3.731  0.00  0.00    -0.166 F 
ATOM     15  F   UNL     1      -3.397   7.076  -3.098  0.00  0.00    -0.166 F 
ATOM     16  F   UNL     1      -1.315   7.223  -2.324  0.00  0.00    -0.166 F 
ENDBRANCH   9  13
ENDBRANCH   4   7
BRANCH   1  17
ATOM     17  C   UNL     1       4.693   5.479  -7.695  0.00  0.00    +0.097 C 
BRANCH  17  18
ATOM     18  C   UNL     1       4.575   4.560  -8.881  0.00  0.00    +0.128 C 
BRANCH  18  21
ATOM     19  O   UNL     1       2.593   5.508 -10.908  0.00  0.00    -0.244 OA
ATOM     20  C   UNL     1       3.807   5.870 -10.857  0.00  0.00    +0.350 A 
ATOM     21  N   UNL     1       4.764   5.299 -10.110  0.00  0.00    -0.277 N 
ATOM     22  C   UNL     1       5.936   5.758 -10.574  0.00  0.00    +0.082 A 
ATOM     23  C   UNL     1       5.676   6.621 -11.628  0.00  0.00    +0.102 A 
ATOM     24  C   UNL     1       6.703   6.929 -12.505  0.00  0.00    +0.021 A 
ATOM     25  C   UNL     1       7.982   6.435 -12.291  0.00  0.00    +0.002 A 
ATOM     26  C   UNL     1       8.271   5.791 -11.096  0.00  0.00    +0.002 A 
ATOM     27  C   UNL     1       7.209   5.288 -10.370  0.00  0.00    +0.019 A 
ATOM     28  N   UNL     1       4.355   6.861 -11.586  0.00  0.00    -0.191 NA
ENDBRANCH  18  21
ENDBRANCH  17  18
ENDBRANCH   1  17
TORSDOF 5
ENDMDL
MODEL 2
REMARK VINA RESULT:      -9.5      4.687      9.073
REMARK  Name = 
REMARK  5 active torsions:
REMARK  status: ('A' for Active; 'I' for Inactive)
REMARK    1  A    between atoms: N_10  and  C_11
REMARK    2  A    between atoms: C_11  and  C_12
REMARK    3  A    between atoms: C_12  and  N_13
REMARK    4  A    between atoms: N_16  and  C_17
REMARK    5  A    between atoms: C_21  and  C_22
REMARK                            x       y       z     vdW  Elec       q    Type
REMARK                         _______ _______ _______ _____ _____    ______ ____
ROOT
ATOM      1  N   UNL     1       2.329   6.374  -9.075  0.00  0.00    -0.268 NA
ATOM      2  C   UNL     1       3.295   6.823  -8.161  0.00  0.00    +0.094 C 
ATOM      3  C   UNL     1       4.274   5.831  -7.642  0.00  0.00    +0.108 C 
ATOM      4  N   UNL     1       4.731   5.050  -8.791  0.00  0.00    -0.305 N 
ATOM      5  C   UNL     1       3.642   4.292  -9.402  0.00  0.00    +0.108 C 
ATOM      6  C   UNL     1       2.415   5.090  -9.626  0.00  0.00    +0.094 C 
ENDROOT
BRANCH   4   7
ATOM      7  C   UNL     1       5.645   5.641  -9.724  0.00  0.00    +0.048 A 
ATOM      8  C   UNL     1       5.390   5.675 -11.084  0.00  0.00    +0.018 A 
ATOM      9  C   UNL     1       6.421   5.754 -12.010  0.00  0.00    +0.073 A 
ATOM     10  C   UNL     1       7.672   5.296 -11.612  0.00  0.00    +0.004 A 
ATOM     11  C   UNL     1       7.994   5.571 -10.288  0.00  0.00    +0.001 A 
ATOM     12  C   UNL     1       6.980   5.766  -9.358  0.00  0.00    +0.015 A 
BRANCH   9  13
ATOM     13  C   UNL     1       6.064   5.589 -13.451  0.00  0.00    +0.419 C 
ATOM     14  F   UNL     1       5.003   4.716 -13.497  0.00  0.00    -0.166 F 
ATOM     15  F   UNL     1       5.740   6.813 -14.022  0.00  0.00    -0.166 F 
ATOM     16  F   UNL     1       7.168   5.110 -14.146  0.00  0.00    -0.166 F 
ENDBRANCH   9  13
ENDBRANCH   4   7
BRANCH   1  17
ATOM     17  C   UNL     1       1.000   6.553  -8.501  0.00  0.00    +0.097 C 
BRANCH  17  18
ATOM     18  C   UNL     1       0.397   5.214  -8.176  0.00  0.00    +0.128 C 
BRANCH  18  21
ATOM     19  O   UNL     1       2.062   3.537  -6.345  0.00  0.00    -0.244 OA
ATOM     20  C   UNL     1       1.241   4.426  -5.968  0.00  0.00    +0.350 A 
ATOM     21  N   UNL     1       0.327   5.028  -6.743  0.00  0.00    -0.277 N 
ATOM     22  C   UNL     1      -0.529   5.647  -5.915  0.00  0.00    +0.082 A 
ATOM     23  C   UNL     1      -0.122   5.405  -4.612  0.00  0.00    +0.102 A 
ATOM     24  C   UNL     1      -1.026   5.609  -3.583  0.00  0.00    +0.021 A 
ATOM     25  C   UNL     1      -2.293   6.110  -3.849  0.00  0.00    +0.002 A 
ATOM     26  C   UNL     1      -2.583   6.584  -5.122  0.00  0.00    +0.002 A 
ATOM     27  C   UNL     1      -1.781   6.153  -6.161  0.00  0.00    +0.019 A 
ATOM     28  N   UNL     1       1.111   4.881  -4.706  0.00  0.00    -0.191 NA
ENDBRANCH  18  21
ENDBRANCH  17  18
ENDBRANCH   1  17
TORSDOF 5
ENDMDL
MODEL 3
REMARK VINA RESULT:      -9.4      1.881      2.797
REMARK  Name = 
REMARK  5 active torsions:
REMARK  status: ('A' for Active; 'I' for Inactive)
REMARK    1  A    between atoms: N_10  and  C_11
REMARK    2  A    between atoms: C_11  and  C_12
REMARK    3  A    between atoms: C_12  and  N_13
REMARK    4  A    between atoms: N_16  and  C_17
REMARK    5  A    between atoms: C_21  and  C_22
REMARK                            x       y       z     vdW  Elec       q    Type
REMARK                         _______ _______ _______ _____ _____    ______ ____
ROOT
ATOM      1  N   UNL     1       1.632   5.235  -9.822  0.00  0.00    -0.268 NA
ATOM      2  C   UNL     1       2.482   4.446  -9.032  0.00  0.00    +0.094 C 
ATOM      3  C   UNL     1       3.262   5.123  -7.962  0.00  0.00    +0.108 C 
ATOM      4  N   UNL     1       2.340   6.030  -7.279  0.00  0.00    -0.305 N 
ATOM      5  C   UNL     1       1.845   7.076  -8.170  0.00  0.00    +0.108 C 
ATOM      6  C   UNL     1       1.380   6.570  -9.481  0.00  0.00    +0.094 C 
ENDROOT
BRANCH   4   7
ATOM      7  C   UNL     1       1.357   5.492  -6.385  0.00  0.00    +0.048 A 
ATOM      8  C   UNL     1       0.019   5.833  -6.472  0.00  0.00    +0.018 A 
ATOM      9  C   UNL     1      -0.820   5.752  -5.368  0.00  0.00    +0.073 A 
ATOM     10  C   UNL     1      -0.228   5.826  -4.112  0.00  0.00    +0.004 A 
ATOM     11  C   UNL     1       1.003   5.187  -4.014  0.00  0.00    +0.001 A 
ATOM     12  C   UNL     1       1.776   5.001  -5.154  0.00  0.00    +0.015 A 
BRANCH   9  13
ATOM     13  C   UNL     1      -2.193   6.322  -5.506  0.00  0.00    +0.419 C 
ATOM     14  F   UNL     1      -2.976   5.700  -4.562  0.00  0.00    -0.166 F 
ATOM     15  F   UNL     1      -2.177   7.698  -5.326  0.00  0.00    -0.166 F 
ATOM     16  F   UNL     1      -2.656   6.099  -6.799  0.00  0.00    -0.166 F 
ENDBRANCH   9  13
ENDBRANCH   4   7
BRANCH   1  17
ATOM     17  C   UNL     1       2.072   5.179 -11.212  0.00  0.00    +0.097 C 
BRANCH  17  18
ATOM     18  C   UNL     1       3.065   6.277 -11.480  0.00  0.00    +0.128 C 
BRANCH  18  21
ATOM     19  O   UNL     1       3.530   4.645 -13.942  0.00  0.00    -0.244 OA
ATOM     20  C   UNL     1       4.442   5.188 -13.249  0.00  0.00    +0.350 A 
ATOM     21  N   UNL     1       4.285   5.728 -12.031  0.00  0.00    -0.277 N 
ATOM     22  C   UNL     1       5.516   5.896 -11.525  0.00  0.00    +0.082 A 
ATOM     23  C   UNL     1       6.433   5.441 -12.460  0.00  0.00    +0.102 A 
ATOM     24  C   UNL     1       7.724   5.159 -12.044  0.00  0.00    +0.021 A 
ATOM     25  C   UNL     1       8.106   5.391 -10.730  0.00  0.00    +0.002 A 
ATOM     26  C   UNL     1       7.249   6.085  -9.886  0.00  0.00    +0.002 A 
ATOM     27  C   UNL     1       5.913   6.132 -10.233  0.00  0.00    +0.019 A 
ATOM     28  N   UNL     1       5.741   5.268 -13.598  0.00  0.00    -0.191 NA
ENDBRANCH  18  21
ENDBRANCH  17  18
ENDBRANCH   1  17
TORSDOF 5
ENDMDL
MODEL 4
REMARK VINA RESULT:      -9.4      4.497      8.679
REMARK  Name = 
REMARK  5 active torsions:
REMARK  status: ('A' for Active; 'I' for Inactive)
REMARK    1  A    between atoms: N_10  and  C_11
REMARK    2  A    between atoms: C_11  and  C_12
REMARK    3  A    between atoms: C_12  and  N_13
REMARK    4  A    between atoms: N_16  and  C_17
REMARK    5  A    between atoms: C_21  and  C_22
REMARK                            x       y       z     vdW  Elec       q    Type
REMARK                         _______ _______ _______ _____ _____    ______ ____
ROOT
ATOM      1  N   UNL     1       3.189   4.613  -7.256  0.00  0.00    -0.268 NA
ATOM      2  C   UNL     1       2.563   3.969  -8.335  0.00  0.00    +0.094 C 
ATOM      3  C   UNL     1       1.912   4.819  -9.367  0.00  0.00    +0.108 C 
ATOM      4  N   UNL     1       2.844   5.906  -9.667  0.00  0.00    -0.305 N 
ATOM      5  C   UNL     1       3.079   6.757  -8.503  0.00  0.00    +0.108 C 
ATOM      6  C   UNL     1       3.364   6.002  -7.262  0.00  0.00    +0.094 C 
ENDROOT
BRANCH   4   7
ATOM      7  C   UNL     1       4.010   5.636 -10.455  0.00  0.00    +0.048 A 
ATOM      8  C   UNL     1       5.279   6.002 -10.042  0.00  0.00    +0.018 A 
ATOM      9  C   UNL     1       6.301   6.220 -10.957  0.00  0.00    +0.073 A 
ATOM     10  C   UNL     1       5.933   6.563 -12.253  0.00  0.00    +0.004 A 
ATOM     11  C   UNL     1       4.797   5.914 -12.723  0.00  0.00    +0.001 A 
ATOM     12  C   UNL     1       3.856   5.432 -11.821  0.00  0.00    +0.015 A 
BRANCH   9  13
ATOM     13  C   UNL     1       7.576   6.798 -10.436  0.00  0.00    +0.419 C 
ATOM     14  F   UNL     1       7.733   6.319  -9.157  0.00  0.00    -0.166 F 
ATOM     15  F   UNL     1       8.645   6.443 -11.246  0.00  0.00    -0.166 F 
ATOM     16  F   UNL     1       7.499   8.186 -10.470  0.00  0.00    -0.166 F 
ENDBRANCH   9  13
ENDBRANCH   4   7
BRANCH   1  17
ATOM     17  C   UNL     1       2.529   4.226  -6.014  0.00  0.00    +0.097 C 
BRANCH  17  18
ATOM     18  C   UNL     1       2.378   5.426  -5.118  0.00  0.00    +0.128 C 
BRANCH  18  21
ATOM     19  O   UNL     1       1.514   5.138  -2.271  0.00  0.00    -0.244 OA
ATOM     20  C   UNL     1       0.767   5.524  -3.219  0.00  0.00    +0.350 A 
ATOM     21  N   UNL     1       1.058   5.448  -4.527  0.00  0.00    -0.277 N 
ATOM     22  C   UNL     1      -0.092   5.654  -5.187  0.00  0.00    +0.082 A 
ATOM     23  C   UNL     1      -1.097   5.854  -4.253  0.00  0.00    +0.102 A 
ATOM     24  C   UNL     1      -2.416   5.717  -4.654  0.00  0.00    +0.021 A 
ATOM     25  C   UNL     1      -2.723   5.449  -5.981  0.00  0.00    +0.002 A 
ATOM     26  C   UNL     1      -1.718   5.511  -6.936  0.00  0.00    +0.002 A 
ATOM     27  C   UNL     1      -0.412   5.403  -6.497  0.00  0.00    +0.019 A 
ATOM     28  N   UNL     1      -0.473   6.031  -3.076  0.00  0.00    -0.191 NA
ENDBRANCH  18  21
ENDBRANCH  17  18
ENDBRANCH   1  17
TORSDOF 5
ENDMDL
MODEL 5
REMARK VINA RESULT:      -9.1      4.645      8.349
REMARK  Name = 
REMARK  5 active torsions:
REMARK  status: ('A' for Active; 'I' for Inactive)
REMARK    1  A    between atoms: N_10  and  C_11
REMARK    2  A    between atoms: C_11  and  C_12
REMARK    3  A    between atoms: C_12  and  N_13
REMARK    4  A    between atoms: N_16  and  C_17
REMARK    5  A    between atoms: C_21  and  C_22
REMARK                            x       y       z     vdW  Elec       q    Type
REMARK                         _______ _______ _______ _____ _____    ______ ____
ROOT
ATOM      1  N   UNL     1       2.414   5.074  -8.250  0.00  0.00    -0.268 NA
ATOM      2  C   UNL     1       1.877   4.537  -9.430  0.00  0.00    +0.094 C 
ATOM      3  C   UNL     1       1.713   5.447 -10.595  0.00  0.00    +0.108 C 
ATOM      4  N   UNL     1       2.948   6.225 -10.698  0.00  0.00    -0.305 N 
ATOM      5  C   UNL     1       3.157   7.071  -9.524  0.00  0.00    +0.108 C 
ATOM      6  C   UNL     1       2.958   6.364  -8.239  0.00  0.00    +0.094 C 
ENDROOT
BRANCH   4   7
ATOM      7  C   UNL     1       4.134   5.599 -11.202  0.00  0.00    +0.048 A 
ATOM      8  C   UNL     1       5.366   5.756 -10.592  0.00  0.00    +0.018 A 
ATOM      9  C   UNL     1       6.548   5.611 -11.304  0.00  0.00    +0.073 A 
ATOM     10  C   UNL     1       6.493   5.814 -12.679  0.00  0.00    +0.004 A 
ATOM     11  C   UNL     1       5.333   5.348 -13.286  0.00  0.00    +0.001 A 
ATOM     12  C   UNL     1       4.168   5.220 -12.539  0.00  0.00    +0.015 A 
BRANCH   9  13
ATOM     13  C   UNL     1       7.818   5.989 -10.612  0.00  0.00    +0.419 C 
ATOM     14  F   UNL     1       7.879   5.236  -9.463  0.00  0.00    -0.166 F 
ATOM     15  F   UNL     1       8.914   5.755 -11.431  0.00  0.00    -0.166 F 
ATOM     16  F   UNL     1       7.808   7.353 -10.346  0.00  0.00    -0.166 F 
ENDBRANCH   9  13
ENDBRANCH   4   7
BRANCH   1  17
ATOM     17  C   UNL     1       1.428   4.970  -7.179  0.00  0.00    +0.097 C 
BRANCH  17  18
ATOM     18  C   UNL     1       2.055   4.343  -5.964  0.00  0.00    +0.128 C 
BRANCH  18  21
ATOM     19  O   UNL     1      -0.158   5.231  -4.160  0.00  0.00    -0.244 OA
ATOM     20  C   UNL     1       1.073   5.464  -3.967  0.00  0.00    +0.350 A 
ATOM     21  N   UNL     1       2.056   5.279  -4.860  0.00  0.00    -0.277 N 
ATOM     22  C   UNL     1       3.130   5.931  -4.389  0.00  0.00    +0.082 A 
ATOM     23  C   UNL     1       2.781   6.527  -3.187  0.00  0.00    +0.102 A 
ATOM     24  C   UNL     1       3.576   7.549  -2.694  0.00  0.00    +0.021 A 
ATOM     25  C   UNL     1       4.735   7.921  -3.360  0.00  0.00    +0.002 A 
ATOM     26  C   UNL     1       5.194   7.140  -4.412  0.00  0.00    +0.002 A 
ATOM     27  C   UNL     1       4.286   6.302  -5.029  0.00  0.00    +0.019 A 
ATOM     28  N   UNL     1       1.598   5.990  -2.843  0.00  0.00    -0.191 NA
ENDBRANCH  18  21
ENDBRANCH  17  18
ENDBRANCH   1  17
TORSDOF 5
ENDMDL
MODEL 6
REMARK VINA RESULT:      -9.1      4.460      9.057
REMARK  Name = 
REMARK  5 active torsions:
REMARK  status: ('A' for Active; 'I' for Inactive)
REMARK    1  A    between atoms: N_10  and  C_11
REMARK    2  A    between atoms: C_11  and  C_12
REMARK    3  A    between atoms: C_12  and  N_13
REMARK    4  A    between atoms: N_16  and  C_17
REMARK    5  A    between atoms: C_21  and  C_22
REMARK                            x       y       z     vdW  Elec       q    Type
REMARK                         _______ _______ _______ _____ _____    ______ ____
ROOT
ATOM      1  N   UNL     1       1.928   6.386  -7.587  0.00  0.00    -0.268 NA
ATOM      2  C   UNL     1       3.243   6.656  -7.175  0.00  0.00    +0.094 C 
ATOM      3  C   UNL     1       4.172   5.505  -7.020  0.00  0.00    +0.108 C 
ATOM      4  N   UNL     1       3.984   4.652  -8.193  0.00  0.00    -0.305 N 
ATOM      5  C   UNL     1       2.633   4.101  -8.254  0.00  0.00    +0.108 C 
ATOM      6  C   UNL     1       1.570   5.105  -8.025  0.00  0.00    +0.094 C 
ENDROOT
BRANCH   4   7
ATOM      7  C   UNL     1       4.519   5.065  -9.457  0.00  0.00    +0.048 A 
ATOM      8  C   UNL     1       5.787   5.605  -9.579  0.00  0.00    +0.018 A 
ATOM      9  C   UNL     1       6.114   6.450 -10.631  0.00  0.00    +0.073 A 
ATOM     10  C   UNL     1       5.071   7.136 -11.244  0.00  0.00    +0.004 A 
ATOM     11  C   UNL     1       3.892   6.411 -11.364  0.00  0.00    +0.001 A 
ATOM     12  C   UNL     1       3.635   5.364 -10.486  0.00  0.00    +0.015 A 
BRANCH   9  13
ATOM     13  C   UNL     1       7.439   7.136 -10.574  0.00  0.00    +0.419 C 
ATOM     14  F   UNL     1       8.190   6.631 -11.610  0.00  0.00    -0.166 F 
ATOM     15  F   UNL     1       7.287   8.512 -10.681  0.00  0.00    -0.166 F 
ATOM     16  F   UNL     1       8.027   6.898  -9.337  0.00  0.00    -0.166 F 
ENDBRANCH   9  13
ENDBRANCH   4   7
BRANCH   1  17
ATOM     17  C   UNL     1       0.999   6.803  -6.541  0.00  0.00    +0.097 C 
BRANCH  17  18
ATOM     18  C   UNL     1       0.216   5.617  -6.048  0.00  0.00    +0.128 C 
BRANCH  18  21
ATOM     19  O   UNL     1       2.414   5.104  -4.087  0.00  0.00    -0.244 OA
ATOM     20  C   UNL     1       1.270   5.563  -3.790  0.00  0.00    +0.350 A 
ATOM     21  N   UNL     1       0.202   5.591  -4.602  0.00  0.00    -0.277 N 
ATOM     22  C   UNL     1      -0.862   5.849  -3.825  0.00  0.00    +0.082 A 
ATOM     23  C   UNL     1      -0.421   5.974  -2.516  0.00  0.00    +0.102 A 
ATOM     24  C   UNL     1      -1.345   5.868  -1.490  0.00  0.00    +0.021 A 
ATOM     25  C   UNL     1      -2.695   5.706  -1.773  0.00  0.00    +0.002 A 
ATOM     26  C   UNL     1      -3.135   5.844  -3.082  0.00  0.00    +0.002 A 
ATOM     27  C   UNL     1      -2.200   5.702  -4.088  0.00  0.00    +0.019 A 
ATOM     28  N   UNL     1       0.918   6.056  -2.587  0.00  0.00    -0.191 NA
ENDBRANCH  18  21
ENDBRANCH  17  18
ENDBRANCH   1  17
TORSDOF 5
ENDMDL
MODEL 7
REMARK VINA RESULT:      -9.1      3.030      4.016
REMARK  Name = 
REMARK  5 active torsions:
REMARK  status: ('A' for Active; 'I' for Inactive)
REMARK    1  A    between atoms: N_10  and  C_11
REMARK    2  A    between atoms: C_11  and  C_12
REMARK    3  A    between atoms: C_12  and  N_13
REMARK    4  A    between atoms: N_16  and  C_17
REMARK    5  A    between atoms: C_21  and  C_22
REMARK                            x       y       z     vdW  Elec       q    Type
REMARK                         _______ _______ _______ _____ _____    ______ ____
ROOT
ATOM      1  N   UNL     1       2.272   5.721  -9.534  0.00  0.00    -0.268 NA
ATOM      2  C   UNL     1       1.002   6.201  -9.179  0.00  0.00    +0.094 C 
ATOM      3  C   UNL     1       0.223   5.429  -8.175  0.00  0.00    +0.108 C 
ATOM      4  N   UNL     1       1.150   5.086  -7.097  0.00  0.00    -0.305 N 
ATOM      5  C   UNL     1       2.226   4.215  -7.561  0.00  0.00    +0.108 C 
ATOM      6  C   UNL     1       2.859   4.670  -8.820  0.00  0.00    +0.094 C 
ENDROOT
BRANCH   4   7
ATOM      7  C   UNL     1       1.559   6.102  -6.172  0.00  0.00    +0.048 A 
ATOM      8  C   UNL     1       2.892   6.405  -5.955  0.00  0.00    +0.018 A 
ATOM      9  C   UNL     1       3.318   6.972  -4.761  0.00  0.00    +0.073 A 
ATOM     10  C   UNL     1       2.525   6.762  -3.638  0.00  0.00    +0.004 A 
ATOM     11  C   UNL     1       1.157   6.772  -3.885  0.00  0.00    +0.001 A 
ATOM     12  C   UNL     1       0.685   6.467  -5.156  0.00  0.00    +0.015 A 
BRANCH   9  13
ATOM     13  C   UNL     1       4.791   7.084  -4.542  0.00  0.00    +0.419 C 
ATOM     14  F   UNL     1       5.397   6.476  -5.616  0.00  0.00    -0.166 F 
ATOM     15  F   UNL     1       5.173   8.413  -4.428  0.00  0.00    -0.166 F 
ATOM     16  F   UNL     1       5.124   6.473  -3.338  0.00  0.00    -0.166 F 
ENDBRANCH   9  13
ENDBRANCH   4   7
BRANCH   1  17
ATOM     17  C   UNL     1       2.285   5.390 -10.955  0.00  0.00    +0.097 C 
BRANCH  17  18
ATOM     18  C   UNL     1       3.125   6.387 -11.706  0.00  0.00    +0.128 C 
BRANCH  18  21
ATOM     19  O   UNL     1       3.633   4.539 -14.001  0.00  0.00    -0.244 OA
ATOM     20  C   UNL     1       4.534   5.120 -13.325  0.00  0.00    +0.350 A 
ATOM     21  N   UNL     1       4.349   5.767 -12.164  0.00  0.00    -0.277 N 
ATOM     22  C   UNL     1       5.567   5.952 -11.631  0.00  0.00    +0.082 A 
ATOM     23  C   UNL     1       6.504   5.399 -12.490  0.00  0.00    +0.102 A 
ATOM     24  C   UNL     1       7.773   5.127 -12.006  0.00  0.00    +0.021 A 
ATOM     25  C   UNL     1       8.116   5.464 -10.704  0.00  0.00    +0.002 A 
ATOM     26  C   UNL     1       7.248   6.246  -9.954  0.00  0.00    +0.002 A 
ATOM     27  C   UNL     1       5.925   6.291 -10.351  0.00  0.00    +0.019 A 
ATOM     28  N   UNL     1       5.846   5.143 -13.633  0.00  0.00    -0.191 NA
ENDBRANCH  18  21
ENDBRANCH  17  18
ENDBRANCH   1  17
TORSDOF 5
ENDMDL
MODEL 8
REMARK VINA RESULT:      -9.0      5.202      8.805
REMARK  Name = 
REMARK  5 active torsions:
REMARK  status: ('A' for Active; 'I' for Inactive)
REMARK    1  A    between atoms: N_10  and  C_11
REMARK    2  A    between atoms: C_11  and  C_12
REMARK    3  A    between atoms: C_12  and  N_13
REMARK    4  A    between atoms: N_16  and  C_17
REMARK    5  A    between atoms: C_21  and  C_22
REMARK                            x       y       z     vdW  Elec       q    Type
REMARK                         _______ _______ _______ _____ _____    ______ ____
ROOT
ATOM      1  N   UNL     1       2.532   6.128  -8.205  0.00  0.00    -0.268 NA
ATOM      2  C   UNL     1       3.438   5.108  -7.879  0.00  0.00    +0.094 C 
ATOM      3  C   UNL     1       3.768   4.109  -8.930  0.00  0.00    +0.108 C 
ATOM      4  N   UNL     1       3.999   4.859 -10.165  0.00  0.00    -0.305 N 
ATOM      5  C   UNL     1       2.796   5.561 -10.608  0.00  0.00    +0.108 C 
ATOM      6  C   UNL     1       2.114   6.311  -9.529  0.00  0.00    +0.094 C 
ENDROOT
BRANCH   4   7
ATOM      7  C   UNL     1       5.215   5.601 -10.321  0.00  0.00    +0.048 A 
ATOM      8  C   UNL     1       5.790   5.820 -11.560  0.00  0.00    +0.018 A 
ATOM      9  C   UNL     1       7.151   6.059 -11.692  0.00  0.00    +0.073 A 
ATOM     10  C   UNL     1       7.982   5.584 -10.684  0.00  0.00    +0.004 A 
ATOM     11  C   UNL     1       7.450   5.677  -9.403  0.00  0.00    +0.001 A 
ATOM     12  C   UNL     1       6.071   5.710  -9.231  0.00  0.00    +0.015 A 
BRANCH   9  13
ATOM     13  C   UNL     1       7.711   6.091 -13.077  0.00  0.00    +0.419 C 
ATOM     14  F   UNL     1       9.076   6.209 -12.948  0.00  0.00    -0.166 F 
ATOM     15  F   UNL     1       7.365   4.942 -13.775  0.00  0.00    -0.166 F 
ATOM     16  F   UNL     1       7.157   7.159 -13.773  0.00  0.00    -0.166 F 
ENDBRANCH   9  13
ENDBRANCH   4   7
BRANCH   1  17
ATOM     17  C   UNL     1       1.354   6.021  -7.350  0.00  0.00    +0.097 C 
BRANCH  17  18
ATOM     18  C   UNL     1       1.286   7.202  -6.420  0.00  0.00    +0.128 C 
BRANCH  18  21
ATOM     19  O   UNL     1      -0.372   6.279  -4.111  0.00  0.00    -0.244 OA
ATOM     20  C   UNL     1       0.892   6.207  -4.170  0.00  0.00    +0.350 A 
ATOM     21  N   UNL     1       1.670   6.810  -5.082  0.00  0.00    -0.277 N 
ATOM     22  C   UNL     1       2.926   6.747  -4.615  0.00  0.00    +0.082 A 
ATOM     23  C   UNL     1       2.901   6.095  -3.392  0.00  0.00    +0.102 A 
ATOM     24  C   UNL     1       3.987   6.230  -2.542  0.00  0.00    +0.021 A 
ATOM     25  C   UNL     1       5.105   6.951  -2.940  0.00  0.00    +0.002 A 
ATOM     26  C   UNL     1       5.208   7.371  -4.259  0.00  0.00    +0.002 A 
ATOM     27  C   UNL     1       4.044   7.445  -4.998  0.00  0.00    +0.019 A 
ATOM     28  N   UNL     1       1.677   5.551  -3.292  0.00  0.00    -0.191 NA
ENDBRANCH  18  21
ENDBRANCH  17  18
ENDBRANCH   1  17
TORSDOF 5
ENDMDL
MODEL 9
REMARK VINA RESULT:      -8.9      2.926      4.194
REMARK  Name = 
REMARK  5 active torsions:
REMARK  status: ('A' for Active; 'I' for Inactive)
REMARK    1  A    between atoms: N_10  and  C_11
REMARK    2  A    between atoms: C_11  and  C_12
REMARK    3  A    between atoms: C_12  and  N_13
REMARK    4  A    between atoms: N_16  and  C_17
REMARK    5  A    between atoms: C_21  and  C_22
REMARK                            x       y       z     vdW  Elec       q    Type
REMARK                         _______ _______ _______ _____ _____    ______ ____
ROOT
ATOM      1  N   UNL     1       3.154   5.180  -8.028  0.00  0.00    -0.268 NA
ATOM      2  C   UNL     1       3.243   6.553  -7.752  0.00  0.00    +0.094 C 
ATOM      3  C   UNL     1       2.304   7.123  -6.749  0.00  0.00    +0.108 C 
ATOM      4  N   UNL     1       2.288   6.197  -5.616  0.00  0.00    -0.305 N 
ATOM      5  C   UNL     1       1.764   4.886  -5.992  0.00  0.00    +0.108 C 
ATOM      6  C   UNL     1       2.348   4.348  -7.241  0.00  0.00    +0.094 C 
ENDROOT
BRANCH   4   7
ATOM      7  C   UNL     1       3.407   6.159  -4.722  0.00  0.00    +0.048 A 
ATOM      8  C   UNL     1       3.360   5.489  -3.512  0.00  0.00    +0.018 A 
ATOM      9  C   UNL     1       4.184   5.852  -2.454  0.00  0.00    +0.073 A 
ATOM     10  C   UNL     1       4.663   7.157  -2.438  0.00  0.00    +0.004 A 
ATOM     11  C   UNL     1       4.984   7.671  -3.688  0.00  0.00    +0.001 A 
ATOM     12  C   UNL     1       4.374   7.152  -4.824  0.00  0.00    +0.015 A 
BRANCH   9  13
ATOM     13  C   UNL     1       3.928   5.204  -1.132  0.00  0.00    +0.419 C 
ATOM     14  F   UNL     1       2.638   4.729  -1.169  0.00  0.00    -0.166 F 
ATOM     15  F   UNL     1       4.839   4.184  -0.899  0.00  0.00    -0.166 F 
ATOM     16  F   UNL     1       4.114   6.139  -0.120  0.00  0.00    -0.166 F 
ENDBRANCH   9  13
ENDBRANCH   4   7
BRANCH   1  17
ATOM     17  C   UNL     1       2.798   4.991  -9.431  0.00  0.00    +0.097 C 
BRANCH  17  18
ATOM     18  C   UNL     1       3.178   6.211 -10.225  0.00  0.00    +0.128 C 
BRANCH  18  21
ATOM     19  O   UNL     1       2.803   5.281 -13.042  0.00  0.00    -0.244 OA
ATOM     20  C   UNL     1       3.905   5.661 -12.544  0.00  0.00    +0.350 A 
ATOM     21  N   UNL     1       4.149   5.866 -11.241  0.00  0.00    -0.277 N 
ATOM     22  C   UNL     1       5.482   5.945 -11.108  0.00  0.00    +0.082 A 
ATOM     23  C   UNL     1       6.052   5.778 -12.361  0.00  0.00    +0.102 A 
ATOM     24  C   UNL     1       7.394   5.446 -12.443  0.00  0.00    +0.021 A 
ATOM     25  C   UNL     1       8.166   5.349 -11.293  0.00  0.00    +0.002 A 
ATOM     26  C   UNL     1       7.636   5.771 -10.081  0.00  0.00    +0.002 A 
ATOM     27  C   UNL     1       6.260   5.857  -9.982  0.00  0.00    +0.019 A 
ATOM     28  N   UNL     1       5.040   5.876 -13.239  0.00  0.00    -0.191 NA
ENDBRANCH  18  21
ENDBRANCH  17  18
ENDBRANCH   1  17
TORSDOF 5
ENDMDL
