MODEL 1
REMARK VINA RESULT:      -8.4      0.000      0.000
REMARK  Name = 
REMARK  6 active torsions:
REMARK  status: ('A' for Active; 'I' for Inactive)
REMARK    1  A    between atoms: C_3  and  O_4
REMARK    2  A    between atoms: O_4  and  C_5
REMARK    3  A    between atoms: C_5  and  C_6
REMARK    4  A    between atoms: C_13  and  C_14
REMARK    5  A    between atoms: C_14  and  S_15
REMARK    6  A    between atoms: S_15  and  C_17
REMARK                            x       y       z     vdW  Elec       q    Type
REMARK                         _______ _______ _______ _____ _____    ______ ____
ROOT
ATOM      1  C   UNL     1      -0.523   5.488  -5.269  0.00  0.00    +0.035 C 
ATOM      2  C   UNL     1       0.349   5.520  -4.271  0.00  0.00    +0.027 A 
ATOM      3  C   UNL     1       1.718   5.646  -4.480  0.00  0.00    +0.072 A 
ATOM      4  N   UNL     1       2.567   5.825  -3.440  0.00  0.00    -0.247 NA
ATOM      5  C   UNL     1       2.186   5.623  -2.169  0.00  0.00    +0.102 A 
ATOM      6  C   UNL     1       0.872   5.237  -1.945  0.00  0.00    +0.057 A 
ATOM      7  C   UNL     1      -0.072   5.331  -2.960  0.00  0.00    +0.138 A 
ENDROOT
BRANCH   3   8
ATOM      8  C   UNL     1       2.218   5.312  -5.851  0.00  0.00    +0.145 C 
BRANCH   8   9
ATOM      9  S   UNL     1       2.830   6.851  -6.654  0.00  0.00    +0.107 S 
ATOM     10  O   UNL     1       1.520   7.328  -7.346  0.00  0.00    -0.248 OA
BRANCH   9  11
ATOM     11  C   UNL     1       3.707   6.165  -8.084  0.00  0.00    +0.221 A 
ATOM     12  N   UNL     1       3.628   6.764  -9.297  0.00  0.00    -0.218 NA
ATOM     13  C   UNL     1       4.798   6.699  -9.938  0.00  0.00    +0.101 A 
ATOM     14  C   UNL     1       5.574   5.814  -9.226  0.00  0.00    +0.101 A 
ATOM     15  C   UNL     1       6.927   5.655  -9.500  0.00  0.00    +0.021 A 
ATOM     16  C   UNL     1       7.504   6.514 -10.427  0.00  0.00    +0.002 A 
ATOM     17  C   UNL     1       6.748   7.487 -11.070  0.00  0.00    +0.002 A 
ATOM     18  C   UNL     1       5.375   7.282 -11.055  0.00  0.00    +0.021 A 
ATOM     19  N   UNL     1       4.902   5.564  -8.083  0.00  0.00    -0.218 NA
ENDBRANCH   9  11
ENDBRANCH   8   9
ENDBRANCH   3   8
BRANCH   7  20
ATOM     20  O   UNL     1      -1.386   4.916  -2.725  0.00  0.00    -0.467 OA
BRANCH  20  21
ATOM     21  C   UNL     1      -2.262   5.743  -1.997  0.00  0.00    +0.308 C 
BRANCH  21  22
ATOM     22  C   UNL     1      -3.369   6.218  -2.912  0.00  0.00    +0.438 C 
ATOM     23  F   UNL     1      -2.850   7.228  -3.687  0.00  0.00    -0.166 F 
ATOM     24  F   UNL     1      -3.779   5.181  -3.710  0.00  0.00    -0.166 F 
ATOM     25  F   UNL     1      -4.406   6.733  -2.170  0.00  0.00    -0.166 F 
ENDBRANCH  21  22
ENDBRANCH  20  21
ENDBRANCH   7  20
TORSDOF 6
ENDMDL
MODEL 2
REMARK VINA RESULT:      -8.4      5.856     10.024
REMARK  Name = 
REMARK  6 active torsions:
REMARK  status: ('A' for Active; 'I' for Inactive)
REMARK    1  A    between atoms: C_3  and  O_4
REMARK    2  A    between atoms: O_4  and  C_5
REMARK    3  A    between atoms: C_5  and  C_6
REMARK    4  A    between atoms: C_13  and  C_14
REMARK    5  A    between atoms: C_14  and  S_15
REMARK    6  A    between atoms: S_15  and  C_17
REMARK                            x       y       z     vdW  Elec       q    Type
REMARK                         _______ _______ _______ _____ _____    ______ ____
ROOT
ATOM      1  C   UNL     1       5.458   5.796 -10.100  0.00  0.00    +0.035 C 
ATOM      2  C   UNL     1       4.685   5.754 -11.176  0.00  0.00    +0.027 A 
ATOM      3  C   UNL     1       3.324   6.036 -11.128  0.00  0.00    +0.072 A 
ATOM      4  N   UNL     1       2.593   6.130 -12.264  0.00  0.00    -0.247 NA
ATOM      5  C   UNL     1       3.060   5.702 -13.448  0.00  0.00    +0.102 A 
ATOM      6  C   UNL     1       4.340   5.168 -13.479  0.00  0.00    +0.057 A 
ATOM      7  C   UNL     1       5.196   5.330 -12.397  0.00  0.00    +0.138 A 
ENDROOT
BRANCH   3   8
ATOM      8  C   UNL     1       2.674   5.961  -9.782  0.00  0.00    +0.145 C 
BRANCH   8   9
ATOM      9  S   UNL     1       0.860   5.754 -10.006  0.00  0.00    +0.107 S 
ATOM     10  O   UNL     1       0.434   7.246 -10.123  0.00  0.00    -0.248 OA
BRANCH   9  11
ATOM     11  C   UNL     1       0.340   5.413  -8.304  0.00  0.00    +0.221 A 
ATOM     12  N   UNL     1       0.925   6.052  -7.261  0.00  0.00    -0.218 NA
ATOM     13  C   UNL     1       0.028   6.332  -6.310  0.00  0.00    +0.101 A 
ATOM     14  C   UNL     1      -1.108   5.631  -6.639  0.00  0.00    +0.101 A 
ATOM     15  C   UNL     1      -2.308   5.843  -5.972  0.00  0.00    +0.021 A 
ATOM     16  C   UNL     1      -2.361   6.882  -5.051  0.00  0.00    +0.002 A 
ATOM     17  C   UNL     1      -1.245   7.668  -4.795  0.00  0.00    +0.002 A 
ATOM     18  C   UNL     1      -0.027   7.118  -5.171  0.00  0.00    +0.021 A 
ATOM     19  N   UNL     1      -0.899   5.140  -7.879  0.00  0.00    -0.218 NA
ENDBRANCH   9  11
ENDBRANCH   8   9
ENDBRANCH   3   8
BRANCH   7  20
ATOM     20  O   UNL     1       6.475   4.766 -12.435  0.00  0.00    -0.467 OA
BRANCH  20  21
ATOM     21  C   UNL     1       7.522   5.447 -13.085  0.00  0.00    +0.308 C 
BRANCH  21  22
ATOM     22  C   UNL     1       8.472   6.001 -12.047  0.00  0.00    +0.438 C 
ATOM     23  F   UNL     1       9.697   6.149 -12.654  0.00  0.00    -0.166 F 
ATOM     24  F   UNL     1       8.016   7.221 -11.615  0.00  0.00    -0.166 F 
ATOM     25  F   UNL     1       8.610   5.110 -11.009  0.00  0.00    -0.166 F 
ENDBRANCH  21  22
ENDBRANCH  20  21
ENDBRANCH   7  20
TORSDOF 6
ENDMDL
MODEL 3
REMARK VINA RESULT:      -8.3      1.856      2.543
REMARK  Name = 
REMARK  6 active torsions:
REMARK  status: ('A' for Active; 'I' for Inactive)
REMARK    1  A    between atoms: C_3  and  O_4
REMARK    2  A    between atoms: O_4  and  C_5
REMARK    3  A    between atoms: C_5  and  C_6
REMARK    4  A    between atoms: C_13  and  C_14
REMARK    5  A    between atoms: C_14  and  S_15
REMARK    6  A    between atoms: S_15  and  C_17
REMARK                            x       y       z     vdW  Elec       q    Type
REMARK                         _______ _______ _______ _____ _____    ______ ____
ROOT
ATOM      1  C   UNL     1       0.684   6.835  -4.312  0.00  0.00    +0.035 C 
ATOM      2  C   UNL     1       0.204   6.296  -5.424  0.00  0.00    +0.027 A 
ATOM      3  C   UNL     1       1.007   6.018  -6.525  0.00  0.00    +0.072 A 
ATOM      4  N   UNL     1       0.517   5.334  -7.587  0.00  0.00    -0.247 NA
ATOM      5  C   UNL     1      -0.798   5.128  -7.755  0.00  0.00    +0.102 A 
ATOM      6  C   UNL     1      -1.657   5.630  -6.788  0.00  0.00    +0.057 A 
ATOM      7  C   UNL     1      -1.160   6.071  -5.567  0.00  0.00    +0.138 A 
ENDROOT
BRANCH   3   8
ATOM      8  C   UNL     1       2.321   6.731  -6.590  0.00  0.00    +0.145 C 
BRANCH   8   9
ATOM      9  S   UNL     1       3.671   5.520  -6.274  0.00  0.00    +0.107 S 
ATOM     10  O   UNL     1       4.744   6.471  -5.669  0.00  0.00    -0.248 OA
BRANCH   9  11
ATOM     11  C   UNL     1       4.344   5.313  -7.944  0.00  0.00    +0.221 A 
ATOM     12  N   UNL     1       3.873   6.054  -8.977  0.00  0.00    -0.218 NA
ATOM     13  C   UNL     1       4.861   6.391  -9.811  0.00  0.00    +0.101 A 
ATOM     14  C   UNL     1       5.948   5.634  -9.440  0.00  0.00    +0.101 A 
ATOM     15  C   UNL     1       7.210   5.870  -9.972  0.00  0.00    +0.021 A 
ATOM     16  C   UNL     1       7.369   6.982 -10.789  0.00  0.00    +0.002 A 
ATOM     17  C   UNL     1       6.297   7.817 -11.078  0.00  0.00    +0.002 A 
ATOM     18  C   UNL     1       5.039   7.269 -10.867  0.00  0.00    +0.021 A 
ATOM     19  N   UNL     1       5.613   5.045  -8.274  0.00  0.00    -0.218 NA
ENDBRANCH   9  11
ENDBRANCH   8   9
ENDBRANCH   3   8
BRANCH   7  20
ATOM     20  O   UNL     1      -2.035   6.595  -4.612  0.00  0.00    -0.467 OA
BRANCH  20  21
ATOM     21  C   UNL     1      -2.786   5.725  -3.797  0.00  0.00    +0.308 C 
BRANCH  21  22
ATOM     22  C   UNL     1      -2.968   6.357  -2.435  0.00  0.00    +0.438 C 
ATOM     23  F   UNL     1      -4.300   6.674  -2.308  0.00  0.00    -0.166 F 
ATOM     24  F   UNL     1      -2.609   5.457  -1.463  0.00  0.00    -0.166 F 
ATOM     25  F   UNL     1      -2.237   7.519  -2.352  0.00  0.00    -0.166 F 
ENDBRANCH  21  22
ENDBRANCH  20  21
ENDBRANCH   7  20
TORSDOF 6
ENDMDL
MODEL 4
REMARK VINA RESULT:      -8.2      1.297      1.444
REMARK  Name = 
REMARK  6 active torsions:
REMARK  status: ('A' for Active; 'I' for Inactive)
REMARK    1  A    between atoms: C_3  and  O_4
REMARK    2  A    between atoms: O_4  and  C_5
REMARK    3  A    between atoms: C_5  and  C_6
REMARK    4  A    between atoms: C_13  and  C_14
REMARK    5  A    between atoms: C_14  and  S_15
REMARK    6  A    between atoms: S_15  and  C_17
REMARK                            x       y       z     vdW  Elec       q    Type
REMARK                         _______ _______ _______ _____ _____    ______ ____
ROOT
ATOM      1  C   UNL     1      -1.115   5.427  -6.240  0.00  0.00    +0.035 C 
ATOM      2  C   UNL     1       0.000   5.758  -5.604  0.00  0.00    +0.027 A 
ATOM      3  C   UNL     1       1.201   5.980  -6.271  0.00  0.00    +0.072 A 
ATOM      4  N   UNL     1       2.282   6.461  -5.612  0.00  0.00    -0.247 NA
ATOM      5  C   UNL     1       2.343   6.491  -4.271  0.00  0.00    +0.102 A 
ATOM      6  C   UNL     1       1.242   6.026  -3.567  0.00  0.00    +0.057 A 
ATOM      7  C   UNL     1       0.033   5.806  -4.216  0.00  0.00    +0.138 A 
ENDROOT
BRANCH   3   8
ATOM      8  C   UNL     1       1.310   5.419  -7.654  0.00  0.00    +0.145 C 
BRANCH   8   9
ATOM      9  S   UNL     1       1.672   6.791  -8.826  0.00  0.00    +0.107 S 
ATOM     10  O   UNL     1       0.581   6.515  -9.902  0.00  0.00    -0.248 OA
BRANCH   9  11
ATOM     11  C   UNL     1       3.128   6.135  -9.682  0.00  0.00    +0.221 A 
ATOM     12  N   UNL     1       3.610   6.742 -10.794  0.00  0.00    -0.218 NA
ATOM     13  C   UNL     1       4.946   6.705 -10.816  0.00  0.00    +0.101 A 
ATOM     14  C   UNL     1       5.319   5.830  -9.823  0.00  0.00    +0.101 A 
ATOM     15  C   UNL     1       6.647   5.699  -9.435  0.00  0.00    +0.021 A 
ATOM     16  C   UNL     1       7.571   6.577  -9.987  0.00  0.00    +0.002 A 
ATOM     17  C   UNL     1       7.181   7.540 -10.909  0.00  0.00    +0.002 A 
ATOM     18  C   UNL     1       5.963   7.309 -11.536  0.00  0.00    +0.021 A 
ATOM     19  N   UNL     1       4.198   5.557  -9.124  0.00  0.00    -0.218 NA
ENDBRANCH   9  11
ENDBRANCH   8   9
ENDBRANCH   3   8
BRANCH   7  20
ATOM     20  O   UNL     1      -1.060   5.315  -3.496  0.00  0.00    -0.467 OA
BRANCH  20  21
ATOM     21  C   UNL     1      -1.803   6.182  -2.672  0.00  0.00    +0.308 C 
BRANCH  21  22
ATOM     22  C   UNL     1      -3.215   6.284  -3.206  0.00  0.00    +0.438 C 
ATOM     23  F   UNL     1      -3.186   7.154  -4.270  0.00  0.00    -0.166 F 
ATOM     24  F   UNL     1      -3.634   5.047  -3.627  0.00  0.00    -0.166 F 
ATOM     25  F   UNL     1      -4.047   6.806  -2.243  0.00  0.00    -0.166 F 
ENDBRANCH  21  22
ENDBRANCH  20  21
ENDBRANCH   7  20
TORSDOF 6
ENDMDL
MODEL 5
REMARK VINA RESULT:      -8.2      3.731      4.484
REMARK  Name = 
REMARK  6 active torsions:
REMARK  status: ('A' for Active; 'I' for Inactive)
REMARK    1  A    between atoms: C_3  and  O_4
REMARK    2  A    between atoms: O_4  and  C_5
REMARK    3  A    between atoms: C_5  and  C_6
REMARK    4  A    between atoms: C_13  and  C_14
REMARK    5  A    between atoms: C_14  and  S_15
REMARK    6  A    between atoms: S_15  and  C_17
REMARK                            x       y       z     vdW  Elec       q    Type
REMARK                         _______ _______ _______ _____ _____    ______ ____
ROOT
ATOM      1  C   UNL     1       4.241   5.536  -6.112  0.00  0.00    +0.035 C 
ATOM      2  C   UNL     1       2.961   5.464  -5.774  0.00  0.00    +0.027 A 
ATOM      3  C   UNL     1       2.070   4.603  -6.406  0.00  0.00    +0.072 A 
ATOM      4  N   UNL     1       0.808   4.445  -5.940  0.00  0.00    -0.247 NA
ATOM      5  C   UNL     1       0.272   5.283  -5.039  0.00  0.00    +0.102 A 
ATOM      6  C   UNL     1       1.066   6.324  -4.578  0.00  0.00    +0.057 A 
ATOM      7  C   UNL     1       2.433   6.327  -4.822  0.00  0.00    +0.138 A 
ENDROOT
BRANCH   3   8
ATOM      8  C   UNL     1       2.481   4.083  -7.748  0.00  0.00    +0.145 C 
BRANCH   8   9
ATOM      9  S   UNL     1       2.044   5.330  -9.029  0.00  0.00    +0.107 S 
ATOM     10  O   UNL     1       1.104   4.473  -9.925  0.00  0.00    -0.248 OA
BRANCH   9  11
ATOM     11  C   UNL     1       3.544   5.316 -10.047  0.00  0.00    +0.221 A 
ATOM     12  N   UNL     1       3.770   6.290 -10.961  0.00  0.00    -0.218 NA
ATOM     13  C   UNL     1       5.067   6.608 -11.008  0.00  0.00    +0.101 A 
ATOM     14  C   UNL     1       5.724   5.636 -10.290  0.00  0.00    +0.101 A 
ATOM     15  C   UNL     1       7.070   5.760  -9.967  0.00  0.00    +0.021 A 
ATOM     16  C   UNL     1       7.701   6.958 -10.275  0.00  0.00    +0.002 A 
ATOM     17  C   UNL     1       7.012   7.989 -10.902  0.00  0.00    +0.002 A 
ATOM     18  C   UNL     1       5.843   7.618 -11.552  0.00  0.00    +0.021 A 
ATOM     19  N   UNL     1       4.765   4.912  -9.676  0.00  0.00    -0.218 NA
ENDBRANCH   9  11
ENDBRANCH   8   9
ENDBRANCH   3   8
BRANCH   7  20
ATOM     20  O   UNL     1       3.215   7.394  -4.370  0.00  0.00    -0.467 OA
BRANCH  20  21
ATOM     21  C   UNL     1       3.443   7.562  -2.990  0.00  0.00    +0.308 C 
BRANCH  21  22
ATOM     22  C   UNL     1       4.763   6.920  -2.625  0.00  0.00    +0.438 C 
ATOM     23  F   UNL     1       5.681   7.311  -3.571  0.00  0.00    -0.166 F 
ATOM     24  F   UNL     1       5.156   7.358  -1.385  0.00  0.00    -0.166 F 
ATOM     25  F   UNL     1       4.651   5.550  -2.671  0.00  0.00    -0.166 F 
ENDBRANCH  21  22
ENDBRANCH  20  21
ENDBRANCH   7  20
TORSDOF 6
ENDMDL
MODEL 6
REMARK VINA RESULT:      -8.2      5.466      9.400
REMARK  Name = 
REMARK  6 active torsions:
REMARK  status: ('A' for Active; 'I' for Inactive)
REMARK    1  A    between atoms: C_3  and  O_4
REMARK    2  A    between atoms: O_4  and  C_5
REMARK    3  A    between atoms: C_5  and  C_6
REMARK    4  A    between atoms: C_13  and  C_14
REMARK    5  A    between atoms: C_14  and  S_15
REMARK    6  A    between atoms: S_15  and  C_17
REMARK                            x       y       z     vdW  Elec       q    Type
REMARK                         _______ _______ _______ _____ _____    ______ ____
ROOT
ATOM      1  C   UNL     1       6.054   5.457  -8.989  0.00  0.00    +0.035 C 
ATOM      2  C   UNL     1       4.855   5.696  -9.500  0.00  0.00    +0.027 A 
ATOM      3  C   UNL     1       3.731   5.892  -8.705  0.00  0.00    +0.072 A 
ATOM      4  N   UNL     1       2.554   6.281  -9.251  0.00  0.00    -0.247 NA
ATOM      5  C   UNL     1       2.334   6.235 -10.575  0.00  0.00    +0.102 A 
ATOM      6  C   UNL     1       3.369   5.788 -11.383  0.00  0.00    +0.057 A 
ATOM      7  C   UNL     1       4.656   5.666 -10.875  0.00  0.00    +0.138 A 
ENDROOT
BRANCH   3   8
ATOM      8  C   UNL     1       3.817   5.403  -7.294  0.00  0.00    +0.145 C 
BRANCH   8   9
ATOM      9  S   UNL     1       3.330   6.768  -6.159  0.00  0.00    +0.107 S 
ATOM     10  O   UNL     1       4.275   6.466  -4.960  0.00  0.00    -0.248 OA
BRANCH   9  11
ATOM     11  C   UNL     1       1.771   6.123  -5.498  0.00  0.00    +0.221 A 
ATOM     12  N   UNL     1       1.059   6.831  -4.587  0.00  0.00    -0.218 NA
ATOM     13  C   UNL     1      -0.253   6.701  -4.802  0.00  0.00    +0.101 A 
ATOM     14  C   UNL     1      -0.391   5.681  -5.715  0.00  0.00    +0.101 A 
ATOM     15  C   UNL     1      -1.614   5.407  -6.314  0.00  0.00    +0.021 A 
ATOM     16  C   UNL     1      -2.666   6.279  -6.065  0.00  0.00    +0.002 A 
ATOM     17  C   UNL     1      -2.503   7.377  -5.230  0.00  0.00    +0.002 A 
ATOM     18  C   UNL     1      -1.416   7.316  -4.368  0.00  0.00    +0.021 A 
ATOM     19  N   UNL     1       0.854   5.403  -6.154  0.00  0.00    -0.218 NA
ENDBRANCH   9  11
ENDBRANCH   8   9
ENDBRANCH   3   8
BRANCH   7  20
ATOM     20  O   UNL     1       5.683   5.193 -11.697  0.00  0.00    -0.467 OA
BRANCH  20  21
ATOM     21  C   UNL     1       6.425   6.096 -12.482  0.00  0.00    +0.308 C 
BRANCH  21  22
ATOM     22  C   UNL     1       7.888   5.985 -12.115  0.00  0.00    +0.438 C 
ATOM     23  F   UNL     1       8.091   4.714 -11.632  0.00  0.00    -0.166 F 
ATOM     24  F   UNL     1       8.656   6.186 -13.234  0.00  0.00    -0.166 F 
ATOM     25  F   UNL     1       8.193   6.881 -11.117  0.00  0.00    -0.166 F 
ENDBRANCH  21  22
ENDBRANCH  20  21
ENDBRANCH   7  20
TORSDOF 6
ENDMDL
MODEL 7
REMARK VINA RESULT:      -8.1      1.893      2.816
REMARK  Name = 
REMARK  6 active torsions:
REMARK  status: ('A' for Active; 'I' for Inactive)
REMARK    1  A    between atoms: C_3  and  O_4
REMARK    2  A    between atoms: O_4  and  C_5
REMARK    3  A    between atoms: C_5  and  C_6
REMARK    4  A    between atoms: C_13  and  C_14
REMARK    5  A    between atoms: C_14  and  S_15
REMARK    6  A    between atoms: S_15  and  C_17
REMARK                            x       y       z     vdW  Elec       q    Type
REMARK                         _______ _______ _______ _____ _____    ______ ____
ROOT
ATOM      1  C   UNL     1       1.858   5.310  -4.693  0.00  0.00    +0.035 C 
ATOM      2  C   UNL     1       0.853   5.354  -5.556  0.00  0.00    +0.027 A 
ATOM      3  C   UNL     1       1.051   5.498  -6.925  0.00  0.00    +0.072 A 
ATOM      4  N   UNL     1       0.017   5.389  -7.792  0.00  0.00    -0.247 NA
ATOM      5  C   UNL     1      -1.261   5.410  -7.381  0.00  0.00    +0.102 A 
ATOM      6  C   UNL     1      -1.496   5.530  -6.019  0.00  0.00    +0.057 A 
ATOM      7  C   UNL     1      -0.463   5.351  -5.108  0.00  0.00    +0.138 A 
ENDROOT
BRANCH   3   8
ATOM      8  C   UNL     1       2.381   6.033  -7.354  0.00  0.00    +0.145 C 
BRANCH   8   9
ATOM      9  S   UNL     1       2.765   5.395  -9.037  0.00  0.00    +0.107 S 
ATOM     10  O   UNL     1       3.301   3.980  -8.670  0.00  0.00    -0.248 OA
BRANCH   9  11
ATOM     11  C   UNL     1       4.331   6.243  -9.376  0.00  0.00    +0.221 A 
ATOM     12  N   UNL     1       5.513   5.674  -9.038  0.00  0.00    -0.218 NA
ATOM     13  C   UNL     1       6.446   5.929  -9.961  0.00  0.00    +0.101 A 
ATOM     14  C   UNL     1       5.916   6.896 -10.782  0.00  0.00    +0.101 A 
ATOM     15  C   UNL     1       6.540   7.259 -11.969  0.00  0.00    +0.021 A 
ATOM     16  C   UNL     1       7.646   6.521 -12.370  0.00  0.00    +0.002 A 
ATOM     17  C   UNL     1       8.122   5.468 -11.599  0.00  0.00    +0.002 A 
ATOM     18  C   UNL     1       7.715   5.469 -10.270  0.00  0.00    +0.021 A 
ATOM     19  N   UNL     1       4.618   7.012 -10.433  0.00  0.00    -0.218 NA
ENDBRANCH   9  11
ENDBRANCH   8   9
ENDBRANCH   3   8
BRANCH   7  20
ATOM     20  O   UNL     1      -0.712   5.498  -3.741  0.00  0.00    -0.467 OA
BRANCH  20  21
ATOM     21  C   UNL     1      -1.657   6.443  -3.298  0.00  0.00    +0.308 C 
BRANCH  21  22
ATOM     22  C   UNL     1      -2.787   5.721  -2.597  0.00  0.00    +0.438 C 
ATOM     23  F   UNL     1      -3.798   6.634  -2.409  0.00  0.00    -0.166 F 
ATOM     24  F   UNL     1      -3.231   4.691  -3.388  0.00  0.00    -0.166 F 
ATOM     25  F   UNL     1      -2.371   5.277  -1.364  0.00  0.00    -0.166 F 
ENDBRANCH  21  22
ENDBRANCH  20  21
ENDBRANCH   7  20
TORSDOF 6
ENDMDL
MODEL 8
REMARK VINA RESULT:      -8.0      5.829      9.416
REMARK  Name = 
REMARK  6 active torsions:
REMARK  status: ('A' for Active; 'I' for Inactive)
REMARK    1  A    between atoms: C_3  and  O_4
REMARK    2  A    between atoms: O_4  and  C_5
REMARK    3  A    between atoms: C_5  and  C_6
REMARK    4  A    between atoms: C_13  and  C_14
REMARK    5  A    between atoms: C_14  and  S_15
REMARK    6  A    between atoms: S_15  and  C_17
REMARK                            x       y       z     vdW  Elec       q    Type
REMARK                         _______ _______ _______ _____ _____    ______ ____
ROOT
ATOM      1  C   UNL     1       5.029   6.231 -10.282  0.00  0.00    +0.035 C 
ATOM      2  C   UNL     1       4.373   5.999 -11.411  0.00  0.00    +0.027 A 
ATOM      3  C   UNL     1       3.016   6.266 -11.553  0.00  0.00    +0.072 A 
ATOM      4  N   UNL     1       2.409   6.158 -12.759  0.00  0.00    -0.247 NA
ATOM      5  C   UNL     1       2.997   5.545 -13.799  0.00  0.00    +0.102 A 
ATOM      6  C   UNL     1       4.271   5.031 -13.605  0.00  0.00    +0.057 A 
ATOM      7  C   UNL     1       5.009   5.384 -12.482  0.00  0.00    +0.138 A 
ENDROOT
BRANCH   3   8
ATOM      8  C   UNL     1       2.227   6.408 -10.289  0.00  0.00    +0.145 C 
BRANCH   8   9
ATOM      9  S   UNL     1       1.472   4.783  -9.871  0.00  0.00    +0.107 S 
ATOM     10  O   UNL     1      -0.020   5.207  -9.745  0.00  0.00    -0.248 OA
BRANCH   9  11
ATOM     11  C   UNL     1       1.906   4.644  -8.117  0.00  0.00    +0.221 A 
ATOM     12  N   UNL     1       3.203   4.570  -7.728  0.00  0.00    -0.218 NA
ATOM     13  C   UNL     1       3.398   5.242  -6.590  0.00  0.00    +0.101 A 
ATOM     14  C   UNL     1       2.147   5.541  -6.104  0.00  0.00    +0.101 A 
ATOM     15  C   UNL     1       1.975   6.407  -5.031  0.00  0.00    +0.021 A 
ATOM     16  C   UNL     1       3.097   7.069  -4.548  0.00  0.00    +0.002 A 
ATOM     17  C   UNL     1       4.350   6.856  -5.109  0.00  0.00    +0.002 A 
ATOM     18  C   UNL     1       4.482   5.690  -5.853  0.00  0.00    +0.021 A 
ATOM     19  N   UNL     1       1.278   5.218  -7.084  0.00  0.00    -0.218 NA
ENDBRANCH   9  11
ENDBRANCH   8   9
ENDBRANCH   3   8
BRANCH   7  20
ATOM     20  O   UNL     1       6.282   4.839 -12.291  0.00  0.00    -0.467 OA
BRANCH  20  21
ATOM     21  C   UNL     1       7.380   5.355 -13.007  0.00  0.00    +0.308 C 
BRANCH  21  22
ATOM     22  C   UNL     1       8.344   6.002 -12.037  0.00  0.00    +0.438 C 
ATOM     23  F   UNL     1       8.436   5.175 -10.943  0.00  0.00    -0.166 F 
ATOM     24  F   UNL     1       9.574   6.127 -12.632  0.00  0.00    -0.166 F 
ATOM     25  F   UNL     1       7.850   7.216 -11.621  0.00  0.00    -0.166 F 
ENDBRANCH  21  22
ENDBRANCH  20  21
ENDBRANCH   7  20
TORSDOF 6
ENDMDL
MODEL 9
REMARK VINA RESULT:      -7.8      5.944      9.538
REMARK  Name = 
REMARK  6 active torsions:
REMARK  status: ('A' for Active; 'I' for Inactive)
REMARK    1  A    between atoms: C_3  and  O_4
REMARK    2  A    between atoms: O_4  and  C_5
REMARK    3  A    between atoms: C_5  and  C_6
REMARK    4  A    between atoms: C_13  and  C_14
REMARK    5  A    between atoms: C_14  and  S_15
REMARK    6  A    between atoms: S_15  and  C_17
REMARK                            x       y       z     vdW  Elec       q    Type
REMARK                         _______ _______ _______ _____ _____    ______ ____
ROOT
ATOM      1  C   UNL     1       3.539   5.912 -11.539  0.00  0.00    +0.035 C 
ATOM      2  C   UNL     1       4.086   5.731 -10.345  0.00  0.00    +0.027 A 
ATOM      3  C   UNL     1       3.357   5.843  -9.166  0.00  0.00    +0.072 A 
ATOM      4  N   UNL     1       3.907   5.506  -7.975  0.00  0.00    -0.247 NA
ATOM      5  C   UNL     1       5.228   5.314  -7.831  0.00  0.00    +0.102 A 
ATOM      6  C   UNL     1       6.025   5.453  -8.957  0.00  0.00    +0.057 A 
ATOM      7  C   UNL     1       5.452   5.509 -10.222  0.00  0.00    +0.138 A 
ENDROOT
BRANCH   3   8
ATOM      8  C   UNL     1       2.063   6.590  -9.250  0.00  0.00    +0.145 C 
BRANCH   8   9
ATOM      9  S   UNL     1       0.694   5.384  -9.490  0.00  0.00    +0.107 S 
ATOM     10  O   UNL     1      -0.378   6.322 -10.121  0.00  0.00    -0.248 OA
BRANCH   9  11
ATOM     11  C   UNL     1       0.046   5.261  -7.802  0.00  0.00    +0.221 A 
ATOM     12  N   UNL     1       0.632   5.937  -6.784  0.00  0.00    -0.218 NA
ATOM     13  C   UNL     1      -0.284   6.392  -5.925  0.00  0.00    +0.101 A 
ATOM     14  C   UNL     1      -1.466   5.776  -6.265  0.00  0.00    +0.101 A 
ATOM     15  C   UNL     1      -2.674   6.166  -5.700  0.00  0.00    +0.021 A 
ATOM     16  C   UNL     1      -2.673   7.289  -4.882  0.00  0.00    +0.002 A 
ATOM     17  C   UNL     1      -1.498   7.984  -4.623  0.00  0.00    +0.002 A 
ATOM     18  C   UNL     1      -0.323   7.285  -4.866  0.00  0.00    +0.021 A 
ATOM     19  N   UNL     1      -1.237   5.151  -7.438  0.00  0.00    -0.218 NA
ENDBRANCH   9  11
ENDBRANCH   8   9
ENDBRANCH   3   8
BRANCH   7  20
ATOM     20  O   UNL     1       6.268   5.673 -11.345  0.00  0.00    -0.467 OA
BRANCH  20  21
ATOM     21  C   UNL     1       7.668   5.608 -11.210  0.00  0.00    +0.308 C 
BRANCH  21  22
ATOM     22  C   UNL     1       8.308   5.861 -12.557  0.00  0.00    +0.438 C 
ATOM     23  F   UNL     1       7.765   7.022 -13.054  0.00  0.00    -0.166 F 
ATOM     24  F   UNL     1       9.663   6.011 -12.399  0.00  0.00    -0.166 F 
ATOM     25  F   UNL     1       8.005   4.837 -13.424  0.00  0.00    -0.166 F 
ENDBRANCH  21  22
ENDBRANCH  20  21
ENDBRANCH   7  20
TORSDOF 6
ENDMDL
