MODEL 1
REMARK VINA RESULT:      -7.1      0.000      0.000
REMARK  Name = 
REMARK  10 active torsions:
REMARK  status: ('A' for Active; 'I' for Inactive)
REMARK    1  A    between atoms: C_2  and  C_3
REMARK    2  A    between atoms: C_3  and  C_4
REMARK    3  A    between atoms: N_6  and  C_7
REMARK    4  A    between atoms: C_10  and  O_11
REMARK    5  A    between atoms: O_11  and  C_12
REMARK    6  A    between atoms: C_12  and  C_13
REMARK    7  A    between atoms: C_13  and  C_15
REMARK    8  A    between atoms: C_15  and  N_16
REMARK    9  A    between atoms: N_16  and  C_17
REMARK   10  A    between atoms: C_20  and  C_21
REMARK                            x       y       z     vdW  Elec       q    Type
REMARK                         _______ _______ _______ _____ _____    ______ ____
ROOT
ATOM      1  C   UNL     1       4.832   5.764 -10.616  0.00  0.00    +0.074 A 
ATOM      2  C   UNL     1       3.461   5.949 -10.707  0.00  0.00    +0.022 A 
ATOM      3  C   UNL     1       2.613   5.584  -9.667  0.00  0.00    +0.070 A 
ATOM      4  C   UNL     1       3.123   5.095  -8.469  0.00  0.00    +0.141 A 
ATOM      5  C   UNL     1       4.489   5.293  -8.294  0.00  0.00    +0.038 A 
ATOM      6  C   UNL     1       5.353   5.448  -9.367  0.00  0.00    +0.020 A 
ENDROOT
BRANCH   3   7
ATOM      7  C   UNL     1       1.169   5.845  -9.723  0.00  0.00    +0.176 C 
ATOM      8  O   UNL     1       0.851   7.067  -9.846  0.00  0.00    -0.291 OA
ATOM      9  C   UNL     1       0.390   4.902 -10.585  0.00  0.00    +0.077 C 
ENDBRANCH   3   7
BRANCH   1  11
ATOM     10  C   UNL     1       6.421   6.555 -12.298  0.00  0.00    +0.246 C 
ATOM     11  N   UNL     1       5.599   5.519 -11.786  0.00  0.00    -0.179 NA
ATOM     12  O   UNL     1       6.249   7.743 -11.930  0.00  0.00    -0.273 OA
BRANCH  10  13
ATOM     13  C   UNL     1       7.600   6.254 -13.161  0.00  0.00    +0.087 C 
BRANCH  13  15
ATOM     14  C   UNL     1       9.242   5.863 -12.131  0.00  0.00    +0.001 C 
ATOM     15  C   UNL     1       8.679   5.636 -12.282  0.00  0.00    +0.010 C 
ENDBRANCH  13  15
ENDBRANCH  10  13
ENDBRANCH   1  11
BRANCH   4  16
ATOM     16  O   UNL     1       2.425   4.070  -7.855  0.00  0.00    -0.473 OA
BRANCH  16  17
ATOM     17  C   UNL     1       2.141   3.964  -6.496  0.00  0.00    +0.240 C 
BRANCH  17  18
ATOM     18  C   UNL     1       1.498   5.464  -6.085  0.00  0.00    +0.213 C 
ATOM     19  O   UNL     1       0.388   4.794  -5.238  0.00  0.00    -0.218 OA
BRANCH  18  20
ATOM     20  C   UNL     1       2.498   5.584  -4.735  0.00  0.00    +0.125 C 
BRANCH  20  21
ATOM     21  N   UNL     1       3.243   6.780  -5.126  0.00  0.00    -0.217 NA
BRANCH  21  22
ATOM     22  C   UNL     1       4.630   6.515  -4.834  0.00  0.00    +0.073 C 
ATOM     23  C   UNL     1       4.845   5.177  -4.184  0.00  0.00    +0.019 C 
ATOM     24  C   UNL     1       5.326   7.642  -4.126  0.00  0.00    +0.019 C 
ENDBRANCH  21  22
ENDBRANCH  20  21
ENDBRANCH  18  20
ENDBRANCH  17  18
ENDBRANCH  16  17
ENDBRANCH   4  16
TORSDOF 10
ENDMDL
MODEL 2
REMARK VINA RESULT:      -6.8      3.005      4.494
REMARK  Name = 
REMARK  10 active torsions:
REMARK  status: ('A' for Active; 'I' for Inactive)
REMARK    1  A    between atoms: C_2  and  C_3
REMARK    2  A    between atoms: C_3  and  C_4
REMARK    3  A    between atoms: N_6  and  C_7
REMARK    4  A    between atoms: C_10  and  O_11
REMARK    5  A    between atoms: O_11  and  C_12
REMARK    6  A    between atoms: C_12  and  C_13
REMARK    7  A    between atoms: C_13  and  C_15
REMARK    8  A    between atoms: C_15  and  N_16
REMARK    9  A    between atoms: N_16  and  C_17
REMARK   10  A    between atoms: C_20  and  C_21
REMARK                            x       y       z     vdW  Elec       q    Type
REMARK                         _______ _______ _______ _____ _____    ______ ____
ROOT
ATOM      1  C   UNL     1       4.484   4.858  -8.687  0.00  0.00    +0.074 A 
ATOM      2  C   UNL     1       4.776   5.325  -7.414  0.00  0.00    +0.022 A 
ATOM      3  C   UNL     1       3.809   5.348  -6.415  0.00  0.00    +0.070 A 
ATOM      4  C   UNL     1       2.539   4.828  -6.639  0.00  0.00    +0.141 A 
ATOM      5  C   UNL     1       2.426   4.039  -7.779  0.00  0.00    +0.038 A 
ATOM      6  C   UNL     1       3.284   4.180  -8.859  0.00  0.00    +0.020 A 
ENDROOT
BRANCH   3   7
ATOM      7  C   UNL     1       4.128   5.770  -5.044  0.00  0.00    +0.176 C 
ATOM      8  O   UNL     1       4.933   5.010  -4.426  0.00  0.00    -0.291 OA
ATOM      9  C   UNL     1       4.391   7.234  -4.880  0.00  0.00    +0.077 C 
ENDBRANCH   3   7
BRANCH   1  11
ATOM     10  C   UNL     1       4.833   6.678 -10.281  0.00  0.00    +0.246 C 
ATOM     11  N   UNL     1       5.171   5.382  -9.814  0.00  0.00    -0.179 NA
ATOM     12  O   UNL     1       3.761   7.224  -9.924  0.00  0.00    -0.273 OA
BRANCH  10  13
ATOM     13  C   UNL     1       5.799   7.488 -11.080  0.00  0.00    +0.087 C 
BRANCH  13  15
ATOM     14  C   UNL     1       7.708   7.412 -10.573  0.00  0.00    +0.001 C 
ATOM     15  C   UNL     1       7.207   7.058 -10.693  0.00  0.00    +0.010 C 
ENDBRANCH  13  15
ENDBRANCH  10  13
ENDBRANCH   1  11
BRANCH   4  16
ATOM     16  O   UNL     1       1.470   5.509  -6.084  0.00  0.00    -0.473 OA
BRANCH  16  17
ATOM     17  C   UNL     1       0.322   4.939  -5.540  0.00  0.00    +0.240 C 
BRANCH  17  18
ATOM     18  C   UNL     1       0.440   5.255  -3.891  0.00  0.00    +0.213 C 
ATOM     19  O   UNL     1       0.734   6.751  -4.165  0.00  0.00    -0.218 OA
BRANCH  18  20
ATOM     20  C   UNL     1      -1.210   5.570  -3.777  0.00  0.00    +0.125 C 
BRANCH  20  21
ATOM     21  N   UNL     1      -1.421   5.117  -2.402  0.00  0.00    -0.217 NA
BRANCH  21  22
ATOM     22  C   UNL     1      -2.370   6.026  -1.809  0.00  0.00    +0.073 C 
ATOM     23  C   UNL     1      -3.568   6.272  -2.682  0.00  0.00    +0.019 C 
ATOM     24  C   UNL     1      -1.750   7.285  -1.276  0.00  0.00    +0.019 C 
ENDBRANCH  21  22
ENDBRANCH  20  21
ENDBRANCH  18  20
ENDBRANCH  17  18
ENDBRANCH  16  17
ENDBRANCH   4  16
TORSDOF 10
ENDMDL
MODEL 3
REMARK VINA RESULT:      -6.7      2.021      2.833
REMARK  Name = 
REMARK  10 active torsions:
REMARK  status: ('A' for Active; 'I' for Inactive)
REMARK    1  A    between atoms: C_2  and  C_3
REMARK    2  A    between atoms: C_3  and  C_4
REMARK    3  A    between atoms: N_6  and  C_7
REMARK    4  A    between atoms: C_10  and  O_11
REMARK    5  A    between atoms: O_11  and  C_12
REMARK    6  A    between atoms: C_12  and  C_13
REMARK    7  A    between atoms: C_13  and  C_15
REMARK    8  A    between atoms: C_15  and  N_16
REMARK    9  A    between atoms: N_16  and  C_17
REMARK   10  A    between atoms: C_20  and  C_21
REMARK                            x       y       z     vdW  Elec       q    Type
REMARK                         _______ _______ _______ _____ _____    ______ ____
ROOT
ATOM      1  C   UNL     1       4.372   5.917 -11.189  0.00  0.00    +0.074 A 
ATOM      2  C   UNL     1       3.017   5.901 -11.484  0.00  0.00    +0.022 A 
ATOM      3  C   UNL     1       2.059   5.925 -10.477  0.00  0.00    +0.070 A 
ATOM      4  C   UNL     1       2.430   6.048  -9.142  0.00  0.00    +0.141 A 
ATOM      5  C   UNL     1       3.747   6.444  -8.939  0.00  0.00    +0.038 A 
ATOM      6  C   UNL     1       4.738   6.218  -9.883  0.00  0.00    +0.020 A 
ENDROOT
BRANCH   3   7
ATOM      7  C   UNL     1       0.623   5.984 -10.781  0.00  0.00    +0.176 C 
ATOM      8  O   UNL     1       0.141   7.154 -10.858  0.00  0.00    -0.291 OA
ATOM      9  C   UNL     1       0.165   5.042 -11.850  0.00  0.00    +0.077 C 
ENDBRANCH   3   7
BRANCH   1  11
ATOM     10  C   UNL     1       6.257   6.073 -12.737  0.00  0.00    +0.246 C 
ATOM     11  N   UNL     1       5.299   5.281 -12.056  0.00  0.00    -0.179 NA
ATOM     12  O   UNL     1       6.105   7.316 -12.829  0.00  0.00    -0.273 OA
BRANCH  10  13
ATOM     13  C   UNL     1       7.538   5.487 -13.230  0.00  0.00    +0.087 C 
BRANCH  13  15
ATOM     14  C   UNL     1       9.210   5.817 -12.226  0.00  0.00    +0.001 C 
ATOM     15  C   UNL     1       8.598   5.707 -12.159  0.00  0.00    +0.010 C 
ENDBRANCH  13  15
ENDBRANCH  10  13
ENDBRANCH   1  11
BRANCH   4  16
ATOM     16  O   UNL     1       1.711   5.314  -8.215  0.00  0.00    -0.473 OA
BRANCH  16  17
ATOM     17  C   UNL     1       2.181   4.230  -7.478  0.00  0.00    +0.240 C 
BRANCH  17  18
ATOM     18  C   UNL     1       1.374   4.344  -6.006  0.00  0.00    +0.213 C 
ATOM     19  O   UNL     1       2.115   5.659  -5.663  0.00  0.00    -0.218 OA
BRANCH  18  20
ATOM     20  C   UNL     1       0.106   5.205  -6.705  0.00  0.00    +0.125 C 
BRANCH  20  21
ATOM     21  N   UNL     1      -0.076   6.208  -5.656  0.00  0.00    -0.217 NA
BRANCH  21  22
ATOM     22  C   UNL     1      -1.473   6.182  -5.299  0.00  0.00    +0.073 C 
ATOM     23  C   UNL     1      -2.337   5.561  -6.362  0.00  0.00    +0.019 C 
ATOM     24  C   UNL     1      -1.995   7.497  -4.799  0.00  0.00    +0.019 C 
ENDBRANCH  21  22
ENDBRANCH  20  21
ENDBRANCH  18  20
ENDBRANCH  17  18
ENDBRANCH  16  17
ENDBRANCH   4  16
TORSDOF 10
ENDMDL
MODEL 4
REMARK VINA RESULT:      -6.6      1.724      6.661
REMARK  Name = 
REMARK  10 active torsions:
REMARK  status: ('A' for Active; 'I' for Inactive)
REMARK    1  A    between atoms: C_2  and  C_3
REMARK    2  A    between atoms: C_3  and  C_4
REMARK    3  A    between atoms: N_6  and  C_7
REMARK    4  A    between atoms: C_10  and  O_11
REMARK    5  A    between atoms: O_11  and  C_12
REMARK    6  A    between atoms: C_12  and  C_13
REMARK    7  A    between atoms: C_13  and  C_15
REMARK    8  A    between atoms: C_15  and  N_16
REMARK    9  A    between atoms: N_16  and  C_17
REMARK   10  A    between atoms: C_20  and  C_21
REMARK                            x       y       z     vdW  Elec       q    Type
REMARK                         _______ _______ _______ _____ _____    ______ ____
ROOT
ATOM      1  C   UNL     1       2.929   6.157  -7.775  0.00  0.00    +0.074 A 
ATOM      2  C   UNL     1       1.807   6.072  -8.585  0.00  0.00    +0.022 A 
ATOM      3  C   UNL     1       1.912   5.734  -9.930  0.00  0.00    +0.070 A 
ATOM      4  C   UNL     1       3.140   5.392 -10.485  0.00  0.00    +0.141 A 
ATOM      5  C   UNL     1       4.142   5.121  -9.560  0.00  0.00    +0.038 A 
ATOM      6  C   UNL     1       4.120   5.646  -8.276  0.00  0.00    +0.020 A 
ENDROOT
BRANCH   3   7
ATOM      7  C   UNL     1       0.724   5.568 -10.777  0.00  0.00    +0.176 C 
ATOM      8  O   UNL     1       0.074   4.497 -10.581  0.00  0.00    -0.291 OA
ATOM      9  C   UNL     1      -0.117   6.796 -10.933  0.00  0.00    +0.077 C 
ENDBRANCH   3   7
BRANCH   1  11
ATOM     10  C   UNL     1       2.969   6.536  -5.360  0.00  0.00    +0.246 C 
ATOM     11  N   UNL     1       2.951   7.059  -6.678  0.00  0.00    -0.179 NA
ATOM     12  O   UNL     1       2.658   5.339  -5.146  0.00  0.00    -0.273 OA
BRANCH  10  13
ATOM     13  C   UNL     1       3.496   7.337  -4.216  0.00  0.00    +0.087 C 
BRANCH  13  15
ATOM     14  C   UNL     1       5.446   7.662  -4.203  0.00  0.00    +0.001 C 
ATOM     15  C   UNL     1       5.014   7.211  -4.215  0.00  0.00    +0.010 C 
ENDBRANCH  13  15
ENDBRANCH  10  13
ENDBRANCH   1  11
BRANCH   4  16
ATOM     16  O   UNL     1       3.399   5.836 -11.770  0.00  0.00    -0.473 OA
BRANCH  16  17
ATOM     17  C   UNL     1       4.598   6.376 -12.230  0.00  0.00    +0.240 C 
BRANCH  17  18
ATOM     18  C   UNL     1       5.144   5.269 -13.372  0.00  0.00    +0.213 C 
ATOM     19  O   UNL     1       4.825   6.250 -14.527  0.00  0.00    -0.218 OA
BRANCH  18  20
ATOM     20  C   UNL     1       6.719   5.855 -13.269  0.00  0.00    +0.125 C 
BRANCH  20  21
ATOM     21  N   UNL     1       7.336   4.702 -12.613  0.00  0.00    -0.217 NA
BRANCH  21  22
ATOM     22  C   UNL     1       8.305   5.226 -11.683  0.00  0.00    +0.073 C 
ATOM     23  C   UNL     1       7.672   5.919 -10.508  0.00  0.00    +0.019 C 
ATOM     24  C   UNL     1       9.396   6.027 -12.332  0.00  0.00    +0.019 C 
ENDBRANCH  21  22
ENDBRANCH  20  21
ENDBRANCH  18  20
ENDBRANCH  17  18
ENDBRANCH  16  17
ENDBRANCH   4  16
TORSDOF 10
ENDMDL
MODEL 5
REMARK VINA RESULT:      -6.6      2.318      7.598
REMARK  Name = 
REMARK  10 active torsions:
REMARK  status: ('A' for Active; 'I' for Inactive)
REMARK    1  A    between atoms: C_2  and  C_3
REMARK    2  A    between atoms: C_3  and  C_4
REMARK    3  A    between atoms: N_6  and  C_7
REMARK    4  A    between atoms: C_10  and  O_11
REMARK    5  A    between atoms: O_11  and  C_12
REMARK    6  A    between atoms: C_12  and  C_13
REMARK    7  A    between atoms: C_13  and  C_15
REMARK    8  A    between atoms: C_15  and  N_16
REMARK    9  A    between atoms: N_16  and  C_17
REMARK   10  A    between atoms: C_20  and  C_21
REMARK                            x       y       z     vdW  Elec       q    Type
REMARK                         _______ _______ _______ _____ _____    ______ ____
ROOT
ATOM      1  C   UNL     1       0.568   5.284  -7.082  0.00  0.00    +0.074 A 
ATOM      2  C   UNL     1       0.299   5.451  -8.433  0.00  0.00    +0.022 A 
ATOM      3  C   UNL     1       1.226   5.088  -9.403  0.00  0.00    +0.070 A 
ATOM      4  C   UNL     1       2.422   4.471  -9.053  0.00  0.00    +0.141 A 
ATOM      5  C   UNL     1       2.465   3.986  -7.750  0.00  0.00    +0.038 A 
ATOM      6  C   UNL     1       1.671   4.511  -6.742  0.00  0.00    +0.020 A 
ENDROOT
BRANCH   3   7
ATOM      7  C   UNL     1       0.921   5.191 -10.837  0.00  0.00    +0.176 C 
ATOM      8  O   UNL     1       0.201   4.255 -11.298  0.00  0.00    -0.291 OA
ATOM      9  C   UNL     1       0.547   6.563 -11.305  0.00  0.00    +0.077 C 
ENDBRANCH   3   7
BRANCH   1  11
ATOM     10  C   UNL     1      -1.381   6.039  -5.815  0.00  0.00    +0.246 C 
ATOM     11  N   UNL     1      -0.003   6.165  -6.126  0.00  0.00    -0.179 NA
ATOM     12  O   UNL     1      -2.148   5.396  -6.571  0.00  0.00    -0.273 OA
BRANCH  10  13
ATOM     13  C   UNL     1      -1.929   6.531  -4.517  0.00  0.00    +0.087 C 
BRANCH  13  15
ATOM     14  C   UNL     1      -2.130   8.468  -4.171  0.00  0.00    +0.001 C 
ATOM     15  C   UNL     1      -1.801   8.048  -4.498  0.00  0.00    +0.010 C 
ENDBRANCH  13  15
ENDBRANCH  10  13
ENDBRANCH   1  11
BRANCH   4  16
ATOM     16  O   UNL     1       3.554   4.835  -9.760  0.00  0.00    -0.473 OA
BRANCH  16  17
ATOM     17  C   UNL     1       4.297   6.000  -9.586  0.00  0.00    +0.240 C 
BRANCH  17  18
ATOM     18  C   UNL     1       4.293   6.729 -11.102  0.00  0.00    +0.213 C 
ATOM     19  O   UNL     1       5.591   7.506 -10.769  0.00  0.00    -0.218 OA
BRANCH  18  20
ATOM     20  C   UNL     1       5.185   5.467 -11.772  0.00  0.00    +0.125 C 
BRANCH  20  21
ATOM     21  N   UNL     1       6.525   5.958 -11.452  0.00  0.00    -0.217 NA
BRANCH  21  22
ATOM     22  C   UNL     1       7.424   5.352 -12.402  0.00  0.00    +0.073 C 
ATOM     23  C   UNL     1       8.862   5.721 -12.165  0.00  0.00    +0.019 C 
ATOM     24  C   UNL     1       6.994   5.515 -13.831  0.00  0.00    +0.019 C 
ENDBRANCH  21  22
ENDBRANCH  20  21
ENDBRANCH  18  20
ENDBRANCH  17  18
ENDBRANCH  16  17
ENDBRANCH   4  16
TORSDOF 10
ENDMDL
MODEL 6
REMARK VINA RESULT:      -6.5      2.776      6.639
REMARK  Name = 
REMARK  10 active torsions:
REMARK  status: ('A' for Active; 'I' for Inactive)
REMARK    1  A    between atoms: C_2  and  C_3
REMARK    2  A    between atoms: C_3  and  C_4
REMARK    3  A    between atoms: N_6  and  C_7
REMARK    4  A    between atoms: C_10  and  O_11
REMARK    5  A    between atoms: O_11  and  C_12
REMARK    6  A    between atoms: C_12  and  C_13
REMARK    7  A    between atoms: C_13  and  C_15
REMARK    8  A    between atoms: C_15  and  N_16
REMARK    9  A    between atoms: N_16  and  C_17
REMARK   10  A    between atoms: C_20  and  C_21
REMARK                            x       y       z     vdW  Elec       q    Type
REMARK                         _______ _______ _______ _____ _____    ______ ____
ROOT
ATOM      1  C   UNL     1       1.462   6.063  -4.467  0.00  0.00    +0.074 A 
ATOM      2  C   UNL     1       0.119   6.385  -4.595  0.00  0.00    +0.022 A 
ATOM      3  C   UNL     1      -0.638   5.911  -5.662  0.00  0.00    +0.070 A 
ATOM      4  C   UNL     1      -0.090   5.035  -6.592  0.00  0.00    +0.141 A 
ATOM      5  C   UNL     1       1.113   4.454  -6.205  0.00  0.00    +0.038 A 
ATOM      6  C   UNL     1       1.958   5.054  -5.284  0.00  0.00    +0.020 A 
ENDROOT
BRANCH   3   7
ATOM      7  C   UNL     1      -2.078   6.185  -5.766  0.00  0.00    +0.176 C 
ATOM      8  O   UNL     1      -2.828   5.198  -5.500  0.00  0.00    -0.291 OA
ATOM      9  C   UNL     1      -2.517   7.488  -5.175  0.00  0.00    +0.077 C 
ENDBRANCH   3   7
BRANCH   1  11
ATOM     10  C   UNL     1       3.243   6.476  -2.845  0.00  0.00    +0.246 C 
ATOM     11  N   UNL     1       2.356   6.968  -3.836  0.00  0.00    -0.179 NA
ATOM     12  O   UNL     1       3.044   5.358  -2.311  0.00  0.00    -0.273 OA
BRANCH  10  13
ATOM     13  C   UNL     1       4.511   7.192  -2.518  0.00  0.00    +0.087 C 
BRANCH  13  15
ATOM     14  C   UNL     1       5.719   7.307  -4.079  0.00  0.00    +0.001 C 
ATOM     15  C   UNL     1       5.201   7.549  -3.828  0.00  0.00    +0.010 C 
ENDBRANCH  13  15
ENDBRANCH  10  13
ENDBRANCH   1  11
BRANCH   4  16
ATOM     16  O   UNL     1      -0.452   5.209  -7.916  0.00  0.00    -0.473 OA
BRANCH  16  17
ATOM     17  C   UNL     1       0.293   5.858  -8.897  0.00  0.00    +0.240 C 
BRANCH  17  18
ATOM     18  C   UNL     1       0.787   4.625  -9.930  0.00  0.00    +0.213 C 
ATOM     19  O   UNL     1       0.175   5.356 -11.150  0.00  0.00    -0.218 OA
BRANCH  18  20
ATOM     20  C   UNL     1       2.276   5.367 -10.194  0.00  0.00    +0.125 C 
BRANCH  20  21
ATOM     21  N   UNL     1       3.076   4.584  -9.253  0.00  0.00    -0.217 NA
BRANCH  21  22
ATOM     22  C   UNL     1       4.345   5.258  -9.130  0.00  0.00    +0.073 C 
ATOM     23  C   UNL     1       4.783   5.424  -7.701  0.00  0.00    +0.019 C 
ATOM     24  C   UNL     1       4.438   6.523  -9.933  0.00  0.00    +0.019 C 
ENDBRANCH  21  22
ENDBRANCH  20  21
ENDBRANCH  18  20
ENDBRANCH  17  18
ENDBRANCH  16  17
ENDBRANCH   4  16
TORSDOF 10
ENDMDL
MODEL 7
REMARK VINA RESULT:      -6.5      1.233      1.556
REMARK  Name = 
REMARK  10 active torsions:
REMARK  status: ('A' for Active; 'I' for Inactive)
REMARK    1  A    between atoms: C_2  and  C_3
REMARK    2  A    between atoms: C_3  and  C_4
REMARK    3  A    between atoms: N_6  and  C_7
REMARK    4  A    between atoms: C_10  and  O_11
REMARK    5  A    between atoms: O_11  and  C_12
REMARK    6  A    between atoms: C_12  and  C_13
REMARK    7  A    between atoms: C_13  and  C_15
REMARK    8  A    between atoms: C_15  and  N_16
REMARK    9  A    between atoms: N_16  and  C_17
REMARK   10  A    between atoms: C_20  and  C_21
REMARK                            x       y       z     vdW  Elec       q    Type
REMARK                         _______ _______ _______ _____ _____    ______ ____
ROOT
ATOM      1  C   UNL     1       4.312   6.133 -11.516  0.00  0.00    +0.074 A 
ATOM      2  C   UNL     1       2.975   6.027 -11.871  0.00  0.00    +0.022 A 
ATOM      3  C   UNL     1       1.964   6.191 -10.930  0.00  0.00    +0.070 A 
ATOM      4  C   UNL     1       2.260   6.544  -9.618  0.00  0.00    +0.141 A 
ATOM      5  C   UNL     1       3.556   7.007  -9.420  0.00  0.00    +0.038 A 
ATOM      6  C   UNL     1       4.601   6.657 -10.263  0.00  0.00    +0.020 A 
ENDROOT
BRANCH   3   7
ATOM      7  C   UNL     1       0.545   6.155 -11.310  0.00  0.00    +0.176 C 
ATOM      8  O   UNL     1       0.180   7.081 -12.097  0.00  0.00    -0.291 OA
ATOM      9  C   UNL     1       0.016   4.796 -11.647  0.00  0.00    +0.077 C 
ENDBRANCH   3   7
BRANCH   1  11
ATOM     10  C   UNL     1       6.275   6.086 -12.972  0.00  0.00    +0.246 C 
ATOM     11  N   UNL     1       5.297   5.389 -12.218  0.00  0.00    -0.179 NA
ATOM     12  O   UNL     1       6.103   7.291 -13.277  0.00  0.00    -0.273 OA
BRANCH  10  13
ATOM     13  C   UNL     1       7.592   5.464 -13.296  0.00  0.00    +0.087 C 
BRANCH  13  15
ATOM     14  C   UNL     1       9.157   5.848 -12.149  0.00  0.00    +0.001 C 
ATOM     15  C   UNL     1       8.540   5.744 -12.138  0.00  0.00    +0.010 C 
ENDBRANCH  13  15
ENDBRANCH  10  13
ENDBRANCH   1  11
BRANCH   4  16
ATOM     16  O   UNL     1       1.509   5.953  -8.619  0.00  0.00    -0.473 OA
BRANCH  16  17
ATOM     17  C   UNL     1       1.785   4.744  -7.984  0.00  0.00    +0.240 C 
BRANCH  17  18
ATOM     18  C   UNL     1       1.448   5.038  -6.362  0.00  0.00    +0.213 C 
ATOM     19  O   UNL     1       1.520   3.525  -6.038  0.00  0.00    -0.218 OA
BRANCH  18  20
ATOM     20  C   UNL     1       3.082   5.223  -5.999  0.00  0.00    +0.125 C 
BRANCH  20  21
ATOM     21  N   UNL     1       3.013   6.540  -5.365  0.00  0.00    -0.217 NA
BRANCH  21  22
ATOM     22  C   UNL     1       3.985   6.535  -4.299  0.00  0.00    +0.073 C 
ATOM     23  C   UNL     1       5.027   7.608  -4.453  0.00  0.00    +0.019 C 
ATOM     24  C   UNL     1       4.561   5.179  -4.011  0.00  0.00    +0.019 C 
ENDBRANCH  21  22
ENDBRANCH  20  21
ENDBRANCH  18  20
ENDBRANCH  17  18
ENDBRANCH  16  17
ENDBRANCH   4  16
TORSDOF 10
ENDMDL
MODEL 8
REMARK VINA RESULT:      -6.4      2.626      4.112
REMARK  Name = 
REMARK  10 active torsions:
REMARK  status: ('A' for Active; 'I' for Inactive)
REMARK    1  A    between atoms: C_2  and  C_3
REMARK    2  A    between atoms: C_3  and  C_4
REMARK    3  A    between atoms: N_6  and  C_7
REMARK    4  A    between atoms: C_10  and  O_11
REMARK    5  A    between atoms: O_11  and  C_12
REMARK    6  A    between atoms: C_12  and  C_13
REMARK    7  A    between atoms: C_13  and  C_15
REMARK    8  A    between atoms: C_15  and  N_16
REMARK    9  A    between atoms: N_16  and  C_17
REMARK   10  A    between atoms: C_20  and  C_21
REMARK                            x       y       z     vdW  Elec       q    Type
REMARK                         _______ _______ _______ _____ _____    ______ ____
ROOT
ATOM      1  C   UNL     1       4.962   5.548  -9.078  0.00  0.00    +0.074 A 
ATOM      2  C   UNL     1       4.967   5.800  -7.715  0.00  0.00    +0.022 A 
ATOM      3  C   UNL     1       3.916   5.391  -6.901  0.00  0.00    +0.070 A 
ATOM      4  C   UNL     1       2.862   4.645  -7.418  0.00  0.00    +0.141 A 
ATOM      5  C   UNL     1       3.097   4.101  -8.676  0.00  0.00    +0.038 A 
ATOM      6  C   UNL     1       4.010   4.656  -9.559  0.00  0.00    +0.020 A 
ENDROOT
BRANCH   3   7
ATOM      7  C   UNL     1       3.948   5.587  -5.445  0.00  0.00    +0.176 C 
ATOM      8  O   UNL     1       4.125   4.530  -4.768  0.00  0.00    -0.291 OA
ATOM      9  C   UNL     1       4.740   6.771  -4.985  0.00  0.00    +0.077 C 
ENDBRANCH   3   7
BRANCH   1  11
ATOM     10  C   UNL     1       6.973   6.199 -10.306  0.00  0.00    +0.246 C 
ATOM     11  N   UNL     1       5.616   6.437  -9.972  0.00  0.00    -0.179 NA
ATOM     12  O   UNL     1       7.674   5.426  -9.608  0.00  0.00    -0.273 OA
BRANCH  10  13
ATOM     13  C   UNL     1       7.564   6.731 -11.569  0.00  0.00    +0.087 C 
BRANCH  13  15
ATOM     14  C   UNL     1       9.150   5.811 -12.309  0.00  0.00    +0.001 C 
ATOM     15  C   UNL     1       8.577   5.714 -12.078  0.00  0.00    +0.010 C 
ENDBRANCH  13  15
ENDBRANCH  10  13
ENDBRANCH   1  11
BRANCH   4  16
ATOM     16  O   UNL     1       1.594   4.928  -6.943  0.00  0.00    -0.473 OA
BRANCH  16  17
ATOM     17  C   UNL     1       0.790   5.999  -7.324  0.00  0.00    +0.240 C 
BRANCH  17  18
ATOM     18  C   UNL     1      -0.756   5.559  -6.827  0.00  0.00    +0.213 C 
ATOM     19  O   UNL     1      -0.197   4.341  -6.051  0.00  0.00    -0.218 OA
BRANCH  18  20
ATOM     20  C   UNL     1      -0.649   6.523  -5.451  0.00  0.00    +0.125 C 
BRANCH  20  21
ATOM     21  N   UNL     1      -1.747   5.930  -4.687  0.00  0.00    -0.217 NA
BRANCH  21  22
ATOM     22  C   UNL     1      -2.490   7.026  -4.116  0.00  0.00    +0.073 C 
ATOM     23  C   UNL     1      -1.951   8.371  -4.517  0.00  0.00    +0.019 C 
ATOM     24  C   UNL     1      -2.725   6.893  -2.639  0.00  0.00    +0.019 C 
ENDBRANCH  21  22
ENDBRANCH  20  21
ENDBRANCH  18  20
ENDBRANCH  17  18
ENDBRANCH  16  17
ENDBRANCH   4  16
TORSDOF 10
ENDMDL
MODEL 9
REMARK VINA RESULT:      -6.3      2.947      8.379
REMARK  Name = 
REMARK  10 active torsions:
REMARK  status: ('A' for Active; 'I' for Inactive)
REMARK    1  A    between atoms: C_2  and  C_3
REMARK    2  A    between atoms: C_3  and  C_4
REMARK    3  A    between atoms: N_6  and  C_7
REMARK    4  A    between atoms: C_10  and  O_11
REMARK    5  A    between atoms: O_11  and  C_12
REMARK    6  A    between atoms: C_12  and  C_13
REMARK    7  A    between atoms: C_13  and  C_15
REMARK    8  A    between atoms: C_15  and  N_16
REMARK    9  A    between atoms: N_16  and  C_17
REMARK   10  A    between atoms: C_20  and  C_21
REMARK                            x       y       z     vdW  Elec       q    Type
REMARK                         _______ _______ _______ _____ _____    ______ ____
ROOT
ATOM      1  C   UNL     1       0.831   6.091  -5.033  0.00  0.00    +0.074 A 
ATOM      2  C   UNL     1       2.144   5.934  -4.614  0.00  0.00    +0.022 A 
ATOM      3  C   UNL     1       3.210   6.198  -5.467  0.00  0.00    +0.070 A 
ATOM      4  C   UNL     1       2.993   6.703  -6.745  0.00  0.00    +0.141 A 
ATOM      5  C   UNL     1       1.712   7.196  -6.965  0.00  0.00    +0.038 A 
ATOM      6  C   UNL     1       0.618   6.759  -6.232  0.00  0.00    +0.020 A 
ENDROOT
BRANCH   3   7
ATOM      7  C   UNL     1       4.603   6.107  -5.010  0.00  0.00    +0.176 C 
ATOM      8  O   UNL     1       5.125   7.211  -4.669  0.00  0.00    -0.291 OA
ATOM      9  C   UNL     1       4.892   4.962  -4.090  0.00  0.00    +0.077 C 
ENDBRANCH   3   7
BRANCH   1  11
ATOM     10  C   UNL     1      -1.029   5.819  -3.470  0.00  0.00    +0.246 C 
ATOM     11  N   UNL     1      -0.196   5.278  -4.482  0.00  0.00    -0.179 NA
ATOM     12  O   UNL     1      -0.689   6.856  -2.852  0.00  0.00    -0.273 OA
BRANCH  10  13
ATOM     13  C   UNL     1      -2.392   5.267  -3.214  0.00  0.00    +0.087 C 
BRANCH  13  15
ATOM     14  C   UNL     1      -3.870   6.447  -2.635  0.00  0.00    +0.001 C 
ATOM     15  C   UNL     1      -3.248   6.383  -2.630  0.00  0.00    +0.010 C 
ENDBRANCH  13  15
ENDBRANCH  10  13
ENDBRANCH   1  11
BRANCH   4  16
ATOM     16  O   UNL     1       3.803   6.225  -7.760  0.00  0.00    -0.473 OA
BRANCH  16  17
ATOM     17  C   UNL     1       3.756   6.603  -9.099  0.00  0.00    +0.240 C 
BRANCH  17  18
ATOM     18  C   UNL     1       3.953   5.164  -9.947  0.00  0.00    +0.213 C 
ATOM     19  O   UNL     1       2.748   5.497 -10.860  0.00  0.00    -0.218 OA
BRANCH  18  20
ATOM     20  C   UNL     1       5.017   5.885 -11.035  0.00  0.00    +0.125 C 
BRANCH  20  21
ATOM     21  N   UNL     1       6.234   5.814 -10.227  0.00  0.00    -0.217 NA
BRANCH  21  22
ATOM     22  C   UNL     1       7.158   6.766 -10.789  0.00  0.00    +0.073 C 
ATOM     23  C   UNL     1       6.473   7.956 -11.401  0.00  0.00    +0.019 C 
ATOM     24  C   UNL     1       8.195   6.150 -11.682  0.00  0.00    +0.019 C 
ENDBRANCH  21  22
ENDBRANCH  20  21
ENDBRANCH  18  20
ENDBRANCH  17  18
ENDBRANCH  16  17
ENDBRANCH   4  16
TORSDOF 10
ENDMDL
