MODEL 1
REMARK VINA RESULT:      -5.8      0.000      0.000
REMARK  Name = 
REMARK  6 active torsions:
REMARK  status: ('A' for Active; 'I' for Inactive)
REMARK    1  A    between atoms: N_5  and  C_6
REMARK    2  A    between atoms: C_6  and  C_7
REMARK    3  A    between atoms: C_7  and  C_8
REMARK    4  A    between atoms: C_7  and  O_10
REMARK    5  A    between atoms: O_10  and  C_11
REMARK    6  A    between atoms: C_11  and  P_12
REMARK                            x       y       z     vdW  Elec       q    Type
REMARK                         _______ _______ _______ _____ _____    ______ ____
ROOT
ATOM      1  C   UNL     1       2.676   5.402  -3.136  0.00  0.00    +0.143 C 
ENDROOT
BRANCH   1   7
ATOM      2  N   UNL     1      -2.644   4.830  -2.565  0.00  0.00    -0.107 NA
ATOM      3  C   UNL     1      -1.413   5.341  -2.572  0.00  0.00    +0.176 A 
ATOM      4  N   UNL     1      -0.559   5.153  -1.547  0.00  0.00    -0.174 NA
ATOM      5  C   UNL     1       0.777   5.062  -1.726  0.00  0.00    +0.351 A 
ATOM      6  O   UNL     1       1.537   4.984  -0.726  0.00  0.00    -0.244 OA
ATOM      7  N   UNL     1       1.257   5.508  -2.898  0.00  0.00    -0.276 N 
ATOM      8  C   UNL     1       0.469   6.098  -3.829  0.00  0.00    +0.083 A 
ATOM      9  C   UNL     1      -0.882   5.779  -3.780  0.00  0.00    +0.057 A 
ENDBRANCH   1   7
BRANCH   1  10
ATOM     10  C   UNL     1       2.840   6.474  -4.419  0.00  0.00    +0.171 C 
BRANCH  10  11
ATOM     11  C   UNL     1       4.166   7.196  -3.680  0.00  0.00    +0.213 C 
ATOM     12  O   UNL     1       3.524   8.080  -2.833  0.00  0.00    -0.218 OA
ENDBRANCH  10  11
BRANCH  10  13
ATOM     13  O   UNL     1       3.738   5.482  -5.196  0.00  0.00    -0.344 OA
BRANCH  13  14
ATOM     14  C   UNL     1       3.368   5.618  -6.507  0.00  0.00    +0.200 C 
BRANCH  14  15
ATOM     15  P   UNL     1       2.139   4.524  -7.148  0.00  0.00    +0.147 P 
ATOM     16  O   UNL     1       0.792   5.458  -7.612  0.00  0.00    -0.355 OA
ATOM     17  O   UNL     1       2.601   3.618  -8.480  0.00  0.00    -0.355 OA
ATOM     18  O   UNL     1       1.681   3.540  -6.081  0.00  0.00    -0.458 OA
ENDBRANCH  14  15
ENDBRANCH  13  14
ENDBRANCH  10  13
ENDBRANCH   1  10
TORSDOF 6
ENDMDL
MODEL 2
REMARK VINA RESULT:      -5.8      2.617      3.405
REMARK  Name = 
REMARK  6 active torsions:
REMARK  status: ('A' for Active; 'I' for Inactive)
REMARK    1  A    between atoms: N_5  and  C_6
REMARK    2  A    between atoms: C_6  and  C_7
REMARK    3  A    between atoms: C_7  and  C_8
REMARK    4  A    between atoms: C_7  and  O_10
REMARK    5  A    between atoms: O_10  and  C_11
REMARK    6  A    between atoms: C_11  and  P_12
REMARK                            x       y       z     vdW  Elec       q    Type
REMARK                         _______ _______ _______ _____ _____    ______ ____
ROOT
ATOM      1  C   UNL     1       1.438   5.478  -5.774  0.00  0.00    +0.143 C 
ENDROOT
BRANCH   1   7
ATOM      2  N   UNL     1      -2.741   4.901  -2.433  0.00  0.00    -0.107 NA
ATOM      3  C   UNL     1      -1.743   5.427  -3.144  0.00  0.00    +0.176 A 
ATOM      4  N   UNL     1      -0.469   5.406  -2.707  0.00  0.00    -0.174 NA
ATOM      5  C   UNL     1       0.583   5.314  -3.550  0.00  0.00    +0.351 A 
ATOM      6  O   UNL     1       1.754   5.396  -3.096  0.00  0.00    -0.244 OA
ATOM      7  N   UNL     1       0.344   5.592  -4.840  0.00  0.00    -0.276 N 
ATOM      8  C   UNL     1      -0.863   6.026  -5.280  0.00  0.00    +0.083 A 
ATOM      9  C   UNL     1      -1.957   5.693  -4.492  0.00  0.00    +0.057 A 
ENDBRANCH   1   7
BRANCH   1  10
ATOM     10  C   UNL     1       0.897   6.506  -6.988  0.00  0.00    +0.171 C 
BRANCH  10  11
ATOM     11  C   UNL     1       2.437   7.159  -7.157  0.00  0.00    +0.213 C 
ATOM     12  O   UNL     1       2.138   8.315  -7.852  0.00  0.00    -0.218 OA
ENDBRANCH  10  11
BRANCH  10  13
ATOM     13  O   UNL     1       1.165   5.439  -8.077  0.00  0.00    -0.344 OA
BRANCH  13  14
ATOM     14  C   UNL     1       0.118   5.551  -8.951  0.00  0.00    +0.200 C 
BRANCH  14  15
ATOM     15  P   UNL     1       0.465   6.028 -10.616  0.00  0.00    +0.147 P 
ATOM     16  O   UNL     1       0.143   4.694 -11.625  0.00  0.00    -0.355 OA
ATOM     17  O   UNL     1      -0.426   7.321 -11.199  0.00  0.00    -0.355 OA
ATOM     18  O   UNL     1       1.934   6.393 -10.778  0.00  0.00    -0.458 OA
ENDBRANCH  14  15
ENDBRANCH  13  14
ENDBRANCH  10  13
ENDBRANCH   1  10
TORSDOF 6
ENDMDL
MODEL 3
REMARK VINA RESULT:      -5.8      5.616      8.407
REMARK  Name = 
REMARK  6 active torsions:
REMARK  status: ('A' for Active; 'I' for Inactive)
REMARK    1  A    between atoms: N_5  and  C_6
REMARK    2  A    between atoms: C_6  and  C_7
REMARK    3  A    between atoms: C_7  and  C_8
REMARK    4  A    between atoms: C_7  and  O_10
REMARK    5  A    between atoms: O_10  and  C_11
REMARK    6  A    between atoms: C_11  and  P_12
REMARK                            x       y       z     vdW  Elec       q    Type
REMARK                         _______ _______ _______ _____ _____    ______ ____
ROOT
ATOM      1  C   UNL     1       3.114   5.831 -10.370  0.00  0.00    +0.143 C 
ENDROOT
BRANCH   1   7
ATOM      2  N   UNL     1       7.855   4.692 -12.647  0.00  0.00    -0.107 NA
ATOM      3  C   UNL     1       6.753   5.331 -12.254  0.00  0.00    +0.176 A 
ATOM      4  N   UNL     1       5.592   5.228 -12.929  0.00  0.00    -0.174 NA
ATOM      5  C   UNL     1       4.390   5.281 -12.313  0.00  0.00    +0.351 A 
ATOM      6  O   UNL     1       3.336   5.277 -13.001  0.00  0.00    -0.244 OA
ATOM      7  N   UNL     1       4.376   5.783 -11.069  0.00  0.00    -0.276 N 
ATOM      8  C   UNL     1       5.483   6.293 -10.477  0.00  0.00    +0.083 A 
ATOM      9  C   UNL     1       6.702   5.832 -10.957  0.00  0.00    +0.057 A 
ENDBRANCH   1   7
BRANCH   1  10
ATOM     10  C   UNL     1       3.581   6.645  -8.976  0.00  0.00    +0.171 C 
BRANCH  10  11
ATOM     11  C   UNL     1       1.996   7.130  -8.697  0.00  0.00    +0.213 C 
ATOM     12  O   UNL     1       2.216   8.265  -7.941  0.00  0.00    -0.218 OA
ENDBRANCH  10  11
BRANCH  10  13
ATOM     13  O   UNL     1       3.405   5.370  -8.115  0.00  0.00    -0.344 OA
BRANCH  13  14
ATOM     14  C   UNL     1       4.374   5.453  -7.153  0.00  0.00    +0.200 C 
BRANCH  14  15
ATOM     15  P   UNL     1       3.878   5.791  -5.492  0.00  0.00    +0.147 P 
ATOM     16  O   UNL     1       3.980   7.473  -5.243  0.00  0.00    -0.355 OA
ATOM     17  O   UNL     1       2.320   5.321  -5.093  0.00  0.00    -0.355 OA
ATOM     18  O   UNL     1       4.813   5.114  -4.499  0.00  0.00    -0.458 OA
ENDBRANCH  14  15
ENDBRANCH  13  14
ENDBRANCH  10  13
ENDBRANCH   1  10
TORSDOF 6
ENDMDL
MODEL 4
REMARK VINA RESULT:      -5.6      3.691      5.635
REMARK  Name = 
REMARK  6 active torsions:
REMARK  status: ('A' for Active; 'I' for Inactive)
REMARK    1  A    between atoms: N_5  and  C_6
REMARK    2  A    between atoms: C_6  and  C_7
REMARK    3  A    between atoms: C_7  and  C_8
REMARK    4  A    between atoms: C_7  and  O_10
REMARK    5  A    between atoms: O_10  and  C_11
REMARK    6  A    between atoms: C_11  and  P_12
REMARK                            x       y       z     vdW  Elec       q    Type
REMARK                         _______ _______ _______ _____ _____    ______ ____
ROOT
ATOM      1  C   UNL     1       2.532   6.876  -5.657  0.00  0.00    +0.143 C 
ENDROOT
BRANCH   1   7
ATOM      2  N   UNL     1       0.936   4.687 -10.307  0.00  0.00    -0.107 NA
ATOM      3  C   UNL     1       1.684   5.233  -9.348  0.00  0.00    +0.176 A 
ATOM      4  N   UNL     1       1.752   6.567  -9.171  0.00  0.00    -0.174 NA
ATOM      5  C   UNL     1       1.921   7.127  -7.953  0.00  0.00    +0.351 A 
ATOM      6  O   UNL     1       2.075   8.373  -7.855  0.00  0.00    -0.244 OA
ATOM      7  N   UNL     1       2.365   6.319  -6.978  0.00  0.00    -0.276 N 
ATOM      8  C   UNL     1       2.711   5.028  -7.203  0.00  0.00    +0.083 A 
ATOM      9  C   UNL     1       2.129   4.422  -8.309  0.00  0.00    +0.057 A 
ENDBRANCH   1   7
BRANCH   1  10
ATOM     10  C   UNL     1       1.809   5.670  -4.736  0.00  0.00    +0.171 C 
BRANCH  10  11
ATOM     11  C   UNL     1       2.554   6.251  -3.345  0.00  0.00    +0.213 C 
ATOM     12  O   UNL     1       3.222   7.344  -3.863  0.00  0.00    -0.218 OA
ENDBRANCH  10  11
BRANCH  10  13
ATOM     13  O   UNL     1       0.551   6.540  -4.498  0.00  0.00    -0.344 OA
BRANCH  13  14
ATOM     14  C   UNL     1      -0.477   5.649  -4.355  0.00  0.00    +0.200 C 
BRANCH  14  15
ATOM     15  P   UNL     1      -1.324   5.589  -2.807  0.00  0.00    +0.147 P 
ATOM     16  O   UNL     1      -1.707   7.185  -2.352  0.00  0.00    -0.355 OA
ATOM     17  O   UNL     1      -2.752   4.711  -2.797  0.00  0.00    -0.355 OA
ATOM     18  O   UNL     1      -0.432   4.996  -1.725  0.00  0.00    -0.458 OA
ENDBRANCH  14  15
ENDBRANCH  13  14
ENDBRANCH  10  13
ENDBRANCH   1  10
TORSDOF 6
ENDMDL
MODEL 5
REMARK VINA RESULT:      -5.5      3.605      6.146
REMARK  Name = 
REMARK  6 active torsions:
REMARK  status: ('A' for Active; 'I' for Inactive)
REMARK    1  A    between atoms: N_5  and  C_6
REMARK    2  A    between atoms: C_6  and  C_7
REMARK    3  A    between atoms: C_7  and  C_8
REMARK    4  A    between atoms: C_7  and  O_10
REMARK    5  A    between atoms: O_10  and  C_11
REMARK    6  A    between atoms: C_11  and  P_12
REMARK                            x       y       z     vdW  Elec       q    Type
REMARK                         _______ _______ _______ _____ _____    ______ ____
ROOT
ATOM      1  C   UNL     1       1.418   4.614  -5.849  0.00  0.00    +0.143 C 
ENDROOT
BRANCH   1   7
ATOM      2  N   UNL     1       5.268   5.649  -9.464  0.00  0.00    -0.107 NA
ATOM      3  C   UNL     1       4.536   5.061  -8.518  0.00  0.00    +0.176 A 
ATOM      4  N   UNL     1       4.677   5.370  -7.214  0.00  0.00    -0.174 NA
ATOM      5  C   UNL     1       3.641   5.333  -6.346  0.00  0.00    +0.351 A 
ATOM      6  O   UNL     1       3.847   5.537  -5.121  0.00  0.00    -0.244 OA
ATOM      7  N   UNL     1       2.554   4.652  -6.739  0.00  0.00    -0.276 N 
ATOM      8  C   UNL     1       2.510   3.960  -7.904  0.00  0.00    +0.083 A 
ATOM      9  C   UNL     1       3.386   4.376  -8.897  0.00  0.00    +0.057 A 
ENDBRANCH   1   7
BRANCH   1  10
ATOM     10  C   UNL     1       0.715   6.097  -6.207  0.00  0.00    +0.171 C 
BRANCH  10  11
ATOM     11  C   UNL     1      -0.772   5.358  -6.470  0.00  0.00    +0.213 C 
ATOM     12  O   UNL     1      -0.784   5.317  -7.851  0.00  0.00    -0.218 OA
ENDBRANCH  10  11
BRANCH  10  13
ATOM     13  O   UNL     1       0.389   6.356  -4.716  0.00  0.00    -0.344 OA
BRANCH  13  14
ATOM     14  C   UNL     1      -0.859   5.829  -4.527  0.00  0.00    +0.200 C 
BRANCH  14  15
ATOM     15  P   UNL     1      -1.422   5.582  -2.871  0.00  0.00    +0.147 P 
ATOM     16  O   UNL     1      -1.706   7.111  -2.177  0.00  0.00    -0.355 OA
ATOM     17  O   UNL     1      -2.832   4.691  -2.711  0.00  0.00    -0.355 OA
ATOM     18  O   UNL     1      -0.358   4.881  -2.038  0.00  0.00    -0.458 OA
ENDBRANCH  14  15
ENDBRANCH  13  14
ENDBRANCH  10  13
ENDBRANCH   1  10
TORSDOF 6
ENDMDL
MODEL 6
REMARK VINA RESULT:      -5.5      3.452      5.164
REMARK  Name = 
REMARK  6 active torsions:
REMARK  status: ('A' for Active; 'I' for Inactive)
REMARK    1  A    between atoms: N_5  and  C_6
REMARK    2  A    between atoms: C_6  and  C_7
REMARK    3  A    between atoms: C_7  and  C_8
REMARK    4  A    between atoms: C_7  and  O_10
REMARK    5  A    between atoms: O_10  and  C_11
REMARK    6  A    between atoms: C_11  and  P_12
REMARK                            x       y       z     vdW  Elec       q    Type
REMARK                         _______ _______ _______ _____ _____    ______ ____
ROOT
ATOM      1  C   UNL     1       3.025   6.815  -5.834  0.00  0.00    +0.143 C 
ENDROOT
BRANCH   1   7
ATOM      2  N   UNL     1       0.622   4.774 -10.195  0.00  0.00    -0.107 NA
ATOM      3  C   UNL     1       1.525   5.306  -9.371  0.00  0.00    +0.176 A 
ATOM      4  N   UNL     1       1.586   6.633  -9.142  0.00  0.00    -0.174 NA
ATOM      5  C   UNL     1       1.972   7.144  -7.952  0.00  0.00    +0.351 A 
ATOM      6  O   UNL     1       2.103   8.389  -7.822  0.00  0.00    -0.244 OA
ATOM      7  N   UNL     1       2.621   6.311  -7.124  0.00  0.00    -0.276 N 
ATOM      8  C   UNL     1       2.955   5.047  -7.478  0.00  0.00    +0.083 A 
ATOM      9  C   UNL     1       2.188   4.468  -8.481  0.00  0.00    +0.057 A 
ENDBRANCH   1   7
BRANCH   1  10
ATOM     10  C   UNL     1       2.820   5.432  -4.901  0.00  0.00    +0.171 C 
BRANCH  10  11
ATOM     11  C   UNL     1       4.097   5.884  -3.905  0.00  0.00    +0.213 C 
ATOM     12  O   UNL     1       5.018   4.906  -4.230  0.00  0.00    -0.218 OA
ENDBRANCH  10  11
BRANCH  10  13
ATOM     13  O   UNL     1       1.784   6.139  -3.994  0.00  0.00    -0.344 OA
BRANCH  13  14
ATOM     14  C   UNL     1       0.668   5.350  -4.044  0.00  0.00    +0.200 C 
BRANCH  14  15
ATOM     15  P   UNL     1      -0.694   5.887  -5.031  0.00  0.00    +0.147 P 
ATOM     16  O   UNL     1      -0.631   7.586  -5.137  0.00  0.00    -0.355 OA
ATOM     17  O   UNL     1      -0.733   5.291  -6.597  0.00  0.00    -0.355 OA
ATOM     18  O   UNL     1      -2.017   5.508  -4.380  0.00  0.00    -0.458 OA
ENDBRANCH  14  15
ENDBRANCH  13  14
ENDBRANCH  10  13
ENDBRANCH   1  10
TORSDOF 6
ENDMDL
MODEL 7
REMARK VINA RESULT:      -5.4      6.456      8.934
REMARK  Name = 
REMARK  6 active torsions:
REMARK  status: ('A' for Active; 'I' for Inactive)
REMARK    1  A    between atoms: N_5  and  C_6
REMARK    2  A    between atoms: C_6  and  C_7
REMARK    3  A    between atoms: C_7  and  C_8
REMARK    4  A    between atoms: C_7  and  O_10
REMARK    5  A    between atoms: O_10  and  C_11
REMARK    6  A    between atoms: C_11  and  P_12
REMARK                            x       y       z     vdW  Elec       q    Type
REMARK                         _______ _______ _______ _____ _____    ______ ____
ROOT
ATOM      1  C   UNL     1       4.024   6.207 -10.774  0.00  0.00    +0.143 C 
ENDROOT
BRANCH   1   7
ATOM      2  N   UNL     1       9.214   5.799 -12.139  0.00  0.00    -0.107 NA
ATOM      3  C   UNL     1       7.933   6.167 -12.102  0.00  0.00    +0.176 A 
ATOM      4  N   UNL     1       6.971   5.461 -12.727  0.00  0.00    -0.174 NA
ATOM      5  C   UNL     1       5.710   5.374 -12.247  0.00  0.00    +0.351 A 
ATOM      6  O   UNL     1       4.826   4.782 -12.920  0.00  0.00    -0.244 OA
ATOM      7  N   UNL     1       5.354   6.285 -11.328  0.00  0.00    -0.276 N 
ATOM      8  C   UNL     1       6.173   7.297 -10.951  0.00  0.00    +0.083 A 
ATOM      9  C   UNL     1       7.533   7.085 -11.137  0.00  0.00    +0.057 A 
ENDBRANCH   1   7
BRANCH   1  10
ATOM     10  C   UNL     1       4.257   5.007  -9.620  0.00  0.00    +0.171 C 
BRANCH  10  11
ATOM     11  C   UNL     1       3.856   6.079  -8.388  0.00  0.00    +0.213 C 
ATOM     12  O   UNL     1       4.708   5.638  -7.394  0.00  0.00    -0.218 OA
ENDBRANCH  10  11
BRANCH  10  13
ATOM     13  O   UNL     1       2.792   4.525  -9.758  0.00  0.00    -0.344 OA
BRANCH  13  14
ATOM     14  C   UNL     1       2.100   5.613 -10.218  0.00  0.00    +0.200 C 
BRANCH  14  15
ATOM     15  P   UNL     1       0.336   5.570 -10.156  0.00  0.00    +0.147 P 
ATOM     16  O   UNL     1      -0.136   5.608  -8.520  0.00  0.00    -0.355 OA
ATOM     17  O   UNL     1      -0.446   6.833 -10.931  0.00  0.00    -0.355 OA
ATOM     18  O   UNL     1      -0.195   4.280 -10.766  0.00  0.00    -0.458 OA
ENDBRANCH  14  15
ENDBRANCH  13  14
ENDBRANCH  10  13
ENDBRANCH   1  10
TORSDOF 6
ENDMDL
MODEL 8
REMARK VINA RESULT:      -5.3      3.033      3.978
REMARK  Name = 
REMARK  6 active torsions:
REMARK  status: ('A' for Active; 'I' for Inactive)
REMARK    1  A    between atoms: N_5  and  C_6
REMARK    2  A    between atoms: C_6  and  C_7
REMARK    3  A    between atoms: C_7  and  C_8
REMARK    4  A    between atoms: C_7  and  O_10
REMARK    5  A    between atoms: O_10  and  C_11
REMARK    6  A    between atoms: C_11  and  P_12
REMARK                            x       y       z     vdW  Elec       q    Type
REMARK                         _______ _______ _______ _____ _____    ______ ____
ROOT
ATOM      1  C   UNL     1       1.822   5.206  -6.634  0.00  0.00    +0.143 C 
ENDROOT
BRANCH   1   7
ATOM      2  N   UNL     1      -2.972   5.501  -4.207  0.00  0.00    -0.107 NA
ATOM      3  C   UNL     1      -1.874   5.809  -4.897  0.00  0.00    +0.176 A 
ATOM      4  N   UNL     1      -0.738   6.203  -4.288  0.00  0.00    -0.174 NA
ATOM      5  C   UNL     1       0.485   5.920  -4.787  0.00  0.00    +0.351 A 
ATOM      6  O   UNL     1       1.511   6.393  -4.231  0.00  0.00    -0.244 OA
ATOM      7  N   UNL     1       0.535   5.542  -6.074  0.00  0.00    -0.276 N 
ATOM      8  C   UNL     1      -0.562   5.522  -6.869  0.00  0.00    +0.083 A 
ATOM      9  C   UNL     1      -1.785   5.400  -6.223  0.00  0.00    +0.057 A 
ENDBRANCH   1   7
BRANCH   1  10
ATOM     10  C   UNL     1       1.744   6.056  -8.081  0.00  0.00    +0.171 C 
BRANCH  10  11
ATOM     11  C   UNL     1       2.763   7.245  -7.468  0.00  0.00    +0.213 C 
ATOM     12  O   UNL     1       2.079   8.380  -7.859  0.00  0.00    -0.218 OA
ENDBRANCH  10  11
BRANCH  10  13
ATOM     13  O   UNL     1       2.932   5.257  -8.669  0.00  0.00    -0.344 OA
BRANCH  13  14
ATOM     14  C   UNL     1       3.083   5.730  -9.945  0.00  0.00    +0.200 C 
BRANCH  14  15
ATOM     15  P   UNL     1       4.721   6.013 -10.543  0.00  0.00    +0.147 P 
ATOM     16  O   UNL     1       5.817   5.449  -9.368  0.00  0.00    -0.355 OA
ATOM     17  O   UNL     1       5.103   5.256 -11.988  0.00  0.00    -0.355 OA
ATOM     18  O   UNL     1       4.974   7.501 -10.742  0.00  0.00    -0.458 OA
ENDBRANCH  14  15
ENDBRANCH  13  14
ENDBRANCH  10  13
ENDBRANCH   1  10
TORSDOF 6
ENDMDL
MODEL 9
REMARK VINA RESULT:      -5.3      3.717      5.059
REMARK  Name = 
REMARK  6 active torsions:
REMARK  status: ('A' for Active; 'I' for Inactive)
REMARK    1  A    between atoms: N_5  and  C_6
REMARK    2  A    between atoms: C_6  and  C_7
REMARK    3  A    between atoms: C_7  and  C_8
REMARK    4  A    between atoms: C_7  and  O_10
REMARK    5  A    between atoms: O_10  and  C_11
REMARK    6  A    between atoms: C_11  and  P_12
REMARK                            x       y       z     vdW  Elec       q    Type
REMARK                         _______ _______ _______ _____ _____    ______ ____
ROOT
ATOM      1  C   UNL     1      -0.385   5.418  -1.468  0.00  0.00    +0.143 C 
ENDROOT
BRANCH   1   7
ATOM      2  N   UNL     1      -1.935   5.477  -6.621  0.00  0.00    -0.107 NA
ATOM      3  C   UNL     1      -1.717   5.829  -5.354  0.00  0.00    +0.176 A 
ATOM      4  N   UNL     1      -2.550   5.462  -4.361  0.00  0.00    -0.174 NA
ATOM      5  C   UNL     1      -2.114   5.218  -3.105  0.00  0.00    +0.351 A 
ATOM      6  O   UNL     1      -2.946   4.973  -2.193  0.00  0.00    -0.244 OA
ATOM      7  N   UNL     1      -0.895   5.683  -2.792  0.00  0.00    -0.276 N 
ATOM      8  C   UNL     1      -0.160   6.433  -3.649  0.00  0.00    +0.083 A 
ATOM      9  C   UNL     1      -0.451   6.283  -4.999  0.00  0.00    +0.057 A 
ENDBRANCH   1   7
BRANCH   1  10
ATOM     10  C   UNL     1       0.133   6.958  -1.039  0.00  0.00    +0.171 C 
BRANCH  10  11
ATOM     11  C   UNL     1      -1.081   7.072   0.118  0.00  0.00    +0.213 C 
ATOM     12  O   UNL     1      -1.486   8.379  -0.082  0.00  0.00    -0.218 OA
ENDBRANCH  10  11
BRANCH  10  13
ATOM     13  O   UNL     1       1.139   6.384  -0.012  0.00  0.00    -0.344 OA
BRANCH  13  14
ATOM     14  C   UNL     1       2.336   6.975  -0.316  0.00  0.00    +0.200 C 
BRANCH  14  15
ATOM     15  P   UNL     1       3.687   5.938  -0.781  0.00  0.00    +0.147 P 
ATOM     16  O   UNL     1       3.107   4.342  -0.913  0.00  0.00    -0.355 OA
ATOM     17  O   UNL     1       4.427   6.321  -2.235  0.00  0.00    -0.355 OA
ATOM     18  O   UNL     1       4.773   5.954   0.286  0.00  0.00    -0.458 OA
ENDBRANCH  14  15
ENDBRANCH  13  14
ENDBRANCH  10  13
ENDBRANCH   1  10
TORSDOF 6
ENDMDL
