MODEL 1
REMARK VINA RESULT:      -7.4      0.000      0.000
REMARK  Name = 
REMARK  12 active torsions:
REMARK  status: ('A' for Active; 'I' for Inactive)
REMARK    1  A    between atoms: N_2  and  C_3
REMARK    2  A    between atoms: C_6  and  C_7
REMARK    3  A    between atoms: C_8  and  C_9
REMARK    4  A    between atoms: C_12  and  O_13
REMARK    5  A    between atoms: O_13  and  C_14
REMARK    6  A    between atoms: C_14  and  C_15
REMARK    7  A    between atoms: C_15  and  O_16
REMARK    8  A    between atoms: O_16  and  C_17
REMARK    9  A    between atoms: C_17  and  C_18
REMARK   10  A    between atoms: C_18  and  O_19
REMARK   11  A    between atoms: O_19  and  C_20
REMARK   12  A    between atoms: C_20  and  C_21
REMARK                            x       y       z     vdW  Elec       q    Type
REMARK                         _______ _______ _______ _____ _____    ______ ____
ROOT
ATOM      1  C   UNL     1       3.768   5.663  -6.978  0.00  0.00    +0.019 A 
ATOM      2  C   UNL     1       2.580   5.037  -6.616  0.00  0.00    +0.102 A 
ATOM      3  N   UNL     1       2.039   5.425  -5.457  0.00  0.00    -0.210 NA
ATOM      4  C   UNL     1       2.844   5.783  -4.430  0.00  0.00    +0.225 A 
ATOM      5  C   UNL     1       4.201   5.802  -4.676  0.00  0.00    +0.058 A 
ATOM      6  C   UNL     1       4.718   5.712  -5.963  0.00  0.00    +0.006 A 
ENDROOT
BRANCH   1   8
ATOM      7  C   UNL     1       5.443   5.187  -8.706  0.00  0.00    +0.000 C 
ATOM      8  C   UNL     1       4.279   5.660  -8.333  0.00  0.00    +0.002 C 
BRANCH   7  12
ATOM      9  C   UNL     1       7.459   5.883 -12.194  0.00  0.00    +0.065 A 
ATOM     10  C   UNL     1       6.429   6.754 -11.864  0.00  0.00    +0.016 A 
ATOM     11  C   UNL     1       5.872   6.744 -10.590  0.00  0.00    +0.001 A 
ATOM     12  C   UNL     1       6.367   5.909  -9.592  0.00  0.00    +0.000 A 
ATOM     13  C   UNL     1       7.659   5.452  -9.829  0.00  0.00    +0.001 A 
ATOM     14  C   UNL     1       8.207   5.445 -11.107  0.00  0.00    +0.016 A 
BRANCH   9  16
ATOM     15  C   UNL     1       6.935   5.757 -14.653  0.00  0.00    +0.135 C 
ATOM     16  N   UNL     1       7.473   5.162 -13.433  0.00  0.00    -0.236 NA
ENDBRANCH   9  16
ENDBRANCH   7  12
ENDBRANCH   1   8
BRANCH   4  17
ATOM     17  O   UNL     1       2.284   6.466  -3.346  0.00  0.00    -0.457 OA
BRANCH  17  18
ATOM     18  C   UNL     1       0.951   6.127  -3.003  0.00  0.00    +0.239 C 
BRANCH  18  19
ATOM     19  C   UNL     1       0.993   5.113  -1.887  0.00  0.00    +0.189 C 
BRANCH  19  20
ATOM     20  O   UNL     1      -0.300   4.837  -1.422  0.00  0.00    -0.347 OA
BRANCH  20  21
ATOM     21  C   UNL     1      -0.971   6.032  -1.209  0.00  0.00    +0.174 C 
BRANCH  21  22
ATOM     22  C   UNL     1      -2.419   5.876  -1.652  0.00  0.00    +0.174 C 
BRANCH  22  23
ATOM     23  O   UNL     1      -2.552   4.781  -2.493  0.00  0.00    -0.348 OA
BRANCH  23  24
ATOM     24  C   UNL     1      -3.166   5.167  -3.693  0.00  0.00    +0.180 C 
BRANCH  24  25
ATOM     25  C   UNL     1      -2.146   5.766  -4.654  0.00  0.00    +0.225 C 
ATOM     26  F   UNL     1      -2.634   5.720  -5.944  0.00  0.00    -0.232 F 
ENDBRANCH  24  25
ENDBRANCH  23  24
ENDBRANCH  22  23
ENDBRANCH  21  22
ENDBRANCH  20  21
ENDBRANCH  19  20
ENDBRANCH  18  19
ENDBRANCH  17  18
ENDBRANCH   4  17
TORSDOF 12
ENDMDL
MODEL 2
REMARK VINA RESULT:      -7.3      4.426     10.665
REMARK  Name = 
REMARK  12 active torsions:
REMARK  status: ('A' for Active; 'I' for Inactive)
REMARK    1  A    between atoms: N_2  and  C_3
REMARK    2  A    between atoms: C_6  and  C_7
REMARK    3  A    between atoms: C_8  and  C_9
REMARK    4  A    between atoms: C_12  and  O_13
REMARK    5  A    between atoms: O_13  and  C_14
REMARK    6  A    between atoms: C_14  and  C_15
REMARK    7  A    between atoms: C_15  and  O_16
REMARK    8  A    between atoms: O_16  and  C_17
REMARK    9  A    between atoms: C_17  and  C_18
REMARK   10  A    between atoms: C_18  and  O_19
REMARK   11  A    between atoms: O_19  and  C_20
REMARK   12  A    between atoms: C_20  and  C_21
REMARK                            x       y       z     vdW  Elec       q    Type
REMARK                         _______ _______ _______ _____ _____    ______ ____
ROOT
ATOM      1  C   UNL     1       0.482   5.439  -7.492  0.00  0.00    +0.019 A 
ATOM      2  C   UNL     1       0.195   5.442  -8.853  0.00  0.00    +0.102 A 
ATOM      3  N   UNL     1       1.243   5.357  -9.677  0.00  0.00    -0.210 NA
ATOM      4  C   UNL     1       2.416   5.938  -9.330  0.00  0.00    +0.225 A 
ATOM      5  C   UNL     1       2.478   6.524  -8.083  0.00  0.00    +0.058 A 
ATOM      6  C   UNL     1       1.494   6.321  -7.122  0.00  0.00    +0.006 A 
ENDROOT
BRANCH   1   8
ATOM      7  C   UNL     1      -1.759   5.524  -6.500  0.00  0.00    +0.000 C 
ATOM      8  C   UNL     1      -0.506   5.139  -6.479  0.00  0.00    +0.002 C 
BRANCH   7  12
ATOM      9  C   UNL     1      -2.106   6.759  -2.618  0.00  0.00    +0.065 A 
ATOM     10  C   UNL     1      -2.003   7.740  -3.597  0.00  0.00    +0.016 A 
ATOM     11  C   UNL     1      -2.141   7.416  -4.942  0.00  0.00    +0.001 A 
ATOM     12  C   UNL     1      -2.446   6.120  -5.346  0.00  0.00    +0.000 A 
ATOM     13  C   UNL     1      -3.007   5.335  -4.344  0.00  0.00    +0.001 A 
ATOM     14  C   UNL     1      -2.851   5.649  -2.998  0.00  0.00    +0.016 A 
BRANCH   9  16
ATOM     15  C   UNL     1      -0.232   5.584  -1.415  0.00  0.00    +0.135 C 
ATOM     16  N   UNL     1      -1.186   6.685  -1.522  0.00  0.00    -0.236 NA
ENDBRANCH   9  16
ENDBRANCH   7  12
ENDBRANCH   1   8
BRANCH   4  17
ATOM     17  O   UNL     1       3.570   5.592 -10.038  0.00  0.00    -0.457 OA
BRANCH  17  18
ATOM     18  C   UNL     1       3.977   6.482 -11.064  0.00  0.00    +0.239 C 
BRANCH  18  19
ATOM     19  C   UNL     1       3.773   5.798 -12.392  0.00  0.00    +0.189 C 
BRANCH  19  20
ATOM     20  O   UNL     1       4.945   5.143 -12.795  0.00  0.00    -0.347 OA
BRANCH  20  21
ATOM     21  C   UNL     1       5.626   5.945 -13.698  0.00  0.00    +0.174 C 
BRANCH  21  22
ATOM     22  C   UNL     1       7.090   5.530 -13.727  0.00  0.00    +0.174 C 
BRANCH  22  23
ATOM     23  O   UNL     1       7.380   4.704 -12.651  0.00  0.00    -0.348 OA
BRANCH  23  24
ATOM     24  C   UNL     1       8.236   5.361 -11.755  0.00  0.00    +0.180 C 
BRANCH  24  25
ATOM     25  C   UNL     1       7.540   5.602 -10.420  0.00  0.00    +0.225 C 
ATOM     26  F   UNL     1       8.253   4.997  -9.405  0.00  0.00    -0.232 F 
ENDBRANCH  24  25
ENDBRANCH  23  24
ENDBRANCH  22  23
ENDBRANCH  21  22
ENDBRANCH  20  21
ENDBRANCH  19  20
ENDBRANCH  18  19
ENDBRANCH  17  18
ENDBRANCH   4  17
TORSDOF 12
ENDMDL
MODEL 3
REMARK VINA RESULT:      -7.2      5.193     10.707
REMARK  Name = 
REMARK  12 active torsions:
REMARK  status: ('A' for Active; 'I' for Inactive)
REMARK    1  A    between atoms: N_2  and  C_3
REMARK    2  A    between atoms: C_6  and  C_7
REMARK    3  A    between atoms: C_8  and  C_9
REMARK    4  A    between atoms: C_12  and  O_13
REMARK    5  A    between atoms: O_13  and  C_14
REMARK    6  A    between atoms: C_14  and  C_15
REMARK    7  A    between atoms: C_15  and  O_16
REMARK    8  A    between atoms: O_16  and  C_17
REMARK    9  A    between atoms: C_17  and  C_18
REMARK   10  A    between atoms: C_18  and  O_19
REMARK   11  A    between atoms: O_19  and  C_20
REMARK   12  A    between atoms: C_20  and  C_21
REMARK                            x       y       z     vdW  Elec       q    Type
REMARK                         _______ _______ _______ _____ _____    ______ ____
ROOT
ATOM      1  C   UNL     1       0.470   5.621  -9.862  0.00  0.00    +0.019 A 
ATOM      2  C   UNL     1       0.096   4.558 -10.677  0.00  0.00    +0.102 A 
ATOM      3  N   UNL     1       0.548   4.591 -11.933  0.00  0.00    -0.210 NA
ATOM      4  C   UNL     1       0.694   5.781 -12.561  0.00  0.00    +0.225 A 
ATOM      5  C   UNL     1       0.436   6.915 -11.819  0.00  0.00    +0.058 A 
ATOM      6  C   UNL     1       0.283   6.874 -10.438  0.00  0.00    +0.006 A 
ENDROOT
BRANCH   1   8
ATOM      7  C   UNL     1      -0.649   5.238  -7.713  0.00  0.00    +0.000 C 
ATOM      8  C   UNL     1       0.407   5.567  -8.417  0.00  0.00    +0.002 C 
BRANCH   7  12
ATOM      9  C   UNL     1      -1.346   5.895  -3.738  0.00  0.00    +0.065 A 
ATOM     10  C   UNL     1      -0.336   6.633  -4.343  0.00  0.00    +0.016 A 
ATOM     11  C   UNL     1      -0.209   6.659  -5.727  0.00  0.00    +0.001 A 
ATOM     12  C   UNL     1      -1.120   6.002  -6.549  0.00  0.00    +0.000 A 
ATOM     13  C   UNL     1      -2.334   5.719  -5.932  0.00  0.00    +0.001 A 
ATOM     14  C   UNL     1      -2.454   5.673  -4.547  0.00  0.00    +0.016 A 
BRANCH   9  16
ATOM     15  C   UNL     1       0.176   5.142  -1.879  0.00  0.00    +0.135 C 
ATOM     16  N   UNL     1      -1.098   5.072  -2.591  0.00  0.00    -0.236 NA
ENDBRANCH   9  16
ENDBRANCH   7  12
ENDBRANCH   1   8
BRANCH   4  17
ATOM     17  O   UNL     1       1.441   5.829 -13.742  0.00  0.00    -0.457 OA
BRANCH  17  18
ATOM     18  C   UNL     1       2.534   4.932 -13.838  0.00  0.00    +0.239 C 
BRANCH  18  19
ATOM     19  C   UNL     1       3.707   5.535 -13.105  0.00  0.00    +0.189 C 
BRANCH  19  20
ATOM     20  O   UNL     1       4.905   4.931 -13.509  0.00  0.00    -0.347 OA
BRANCH  20  21
ATOM     21  C   UNL     1       5.699   5.876 -14.141  0.00  0.00    +0.174 C 
BRANCH  21  22
ATOM     22  C   UNL     1       7.164   5.533 -13.906  0.00  0.00    +0.174 C 
BRANCH  22  23
ATOM     23  O   UNL     1       7.292   4.676 -12.823  0.00  0.00    -0.348 OA
BRANCH  23  24
ATOM     24  C   UNL     1       8.100   5.261 -11.837  0.00  0.00    +0.180 C 
BRANCH  24  25
ATOM     25  C   UNL     1       7.261   6.087 -10.870  0.00  0.00    +0.225 C 
ATOM     26  F   UNL     1       6.125   5.385 -10.520  0.00  0.00    -0.232 F 
ENDBRANCH  24  25
ENDBRANCH  23  24
ENDBRANCH  22  23
ENDBRANCH  21  22
ENDBRANCH  20  21
ENDBRANCH  19  20
ENDBRANCH  18  19
ENDBRANCH  17  18
ENDBRANCH   4  17
TORSDOF 12
ENDMDL
MODEL 4
REMARK VINA RESULT:      -7.2      1.669      2.524
REMARK  Name = 
REMARK  12 active torsions:
REMARK  status: ('A' for Active; 'I' for Inactive)
REMARK    1  A    between atoms: N_2  and  C_3
REMARK    2  A    between atoms: C_6  and  C_7
REMARK    3  A    between atoms: C_8  and  C_9
REMARK    4  A    between atoms: C_12  and  O_13
REMARK    5  A    between atoms: O_13  and  C_14
REMARK    6  A    between atoms: C_14  and  C_15
REMARK    7  A    between atoms: C_15  and  O_16
REMARK    8  A    between atoms: O_16  and  C_17
REMARK    9  A    between atoms: C_17  and  C_18
REMARK   10  A    between atoms: C_18  and  O_19
REMARK   11  A    between atoms: O_19  and  C_20
REMARK   12  A    between atoms: C_20  and  C_21
REMARK                            x       y       z     vdW  Elec       q    Type
REMARK                         _______ _______ _______ _____ _____    ______ ____
ROOT
ATOM      1  C   UNL     1       3.590   6.092  -8.193  0.00  0.00    +0.019 A 
ATOM      2  C   UNL     1       3.732   5.772  -6.847  0.00  0.00    +0.102 A 
ATOM      3  N   UNL     1       2.628   5.861  -6.100  0.00  0.00    -0.210 NA
ATOM      4  C   UNL     1       1.708   6.815  -6.377  0.00  0.00    +0.225 A 
ATOM      5  C   UNL     1       1.936   7.601  -7.488  0.00  0.00    +0.058 A 
ATOM      6  C   UNL     1       2.911   7.284  -8.427  0.00  0.00    +0.006 A 
ENDROOT
BRANCH   1   8
ATOM      7  C   UNL     1       5.842   5.601  -9.031  0.00  0.00    +0.000 C 
ATOM      8  C   UNL     1       4.546   5.692  -9.203  0.00  0.00    +0.002 C 
BRANCH   7  12
ATOM      9  C   UNL     1       7.491   6.277 -12.711  0.00  0.00    +0.065 A 
ATOM     10  C   UNL     1       6.865   7.346 -12.082  0.00  0.00    +0.016 A 
ATOM     11  C   UNL     1       6.512   7.271 -10.739  0.00  0.00    +0.001 A 
ATOM     12  C   UNL     1       6.827   6.154  -9.971  0.00  0.00    +0.000 A 
ATOM     13  C   UNL     1       7.848   5.374 -10.503  0.00  0.00    +0.001 A 
ATOM     14  C   UNL     1       8.186   5.436 -11.851  0.00  0.00    +0.016 A 
BRANCH   9  16
ATOM     15  C   UNL     1       5.935   6.407 -14.686  0.00  0.00    +0.135 C 
ATOM     16  N   UNL     1       7.096   5.830 -14.015  0.00  0.00    -0.236 NA
ENDBRANCH   9  16
ENDBRANCH   7  12
ENDBRANCH   1   8
BRANCH   4  17
ATOM     17  O   UNL     1       0.440   6.711  -5.798  0.00  0.00    -0.457 OA
BRANCH  17  18
ATOM     18  C   UNL     1      -0.212   5.459  -5.919  0.00  0.00    +0.239 C 
BRANCH  18  19
ATOM     19  C   UNL     1      -1.671   5.711  -6.209  0.00  0.00    +0.189 C 
BRANCH  19  20
ATOM     20  O   UNL     1      -2.467   5.298  -5.132  0.00  0.00    -0.347 OA
BRANCH  20  21
ATOM     21  C   UNL     1      -2.725   6.387  -4.314  0.00  0.00    +0.174 C 
BRANCH  21  22
ATOM     22  C   UNL     1      -3.296   5.894  -2.992  0.00  0.00    +0.174 C 
BRANCH  22  23
ATOM     23  O   UNL     1      -2.439   4.973  -2.409  0.00  0.00    -0.348 OA
BRANCH  23  24
ATOM     24  C   UNL     1      -1.673   5.592  -1.410  0.00  0.00    +0.180 C 
BRANCH  24  25
ATOM     25  C   UNL     1      -0.185   5.387  -1.665  0.00  0.00    +0.225 C 
ATOM     26  F   UNL     1       0.245   6.257  -2.647  0.00  0.00    -0.232 F 
ENDBRANCH  24  25
ENDBRANCH  23  24
ENDBRANCH  22  23
ENDBRANCH  21  22
ENDBRANCH  20  21
ENDBRANCH  19  20
ENDBRANCH  18  19
ENDBRANCH  17  18
ENDBRANCH   4  17
TORSDOF 12
ENDMDL
MODEL 5
REMARK VINA RESULT:      -7.1      4.204     10.515
REMARK  Name = 
REMARK  12 active torsions:
REMARK  status: ('A' for Active; 'I' for Inactive)
REMARK    1  A    between atoms: N_2  and  C_3
REMARK    2  A    between atoms: C_6  and  C_7
REMARK    3  A    between atoms: C_8  and  C_9
REMARK    4  A    between atoms: C_12  and  O_13
REMARK    5  A    between atoms: O_13  and  C_14
REMARK    6  A    between atoms: C_14  and  C_15
REMARK    7  A    between atoms: C_15  and  O_16
REMARK    8  A    between atoms: O_16  and  C_17
REMARK    9  A    between atoms: C_17  and  C_18
REMARK   10  A    between atoms: C_18  and  O_19
REMARK   11  A    between atoms: O_19  and  C_20
REMARK   12  A    between atoms: C_20  and  C_21
REMARK                            x       y       z     vdW  Elec       q    Type
REMARK                         _______ _______ _______ _____ _____    ______ ____
ROOT
ATOM      1  C   UNL     1       0.720   5.196  -7.046  0.00  0.00    +0.019 A 
ATOM      2  C   UNL     1       1.835   4.364  -7.054  0.00  0.00    +0.102 A 
ATOM      3  N   UNL     1       2.920   4.838  -7.673  0.00  0.00    -0.210 NA
ATOM      4  C   UNL     1       2.777   5.629  -8.762  0.00  0.00    +0.225 A 
ATOM      5  C   UNL     1       1.490   5.968  -9.124  0.00  0.00    +0.058 A 
ATOM      6  C   UNL     1       0.403   5.736  -8.289  0.00  0.00    +0.006 A 
ENDROOT
BRANCH   1   8
ATOM      7  C   UNL     1      -1.600   5.479  -6.301  0.00  0.00    +0.000 C 
ATOM      8  C   UNL     1      -0.381   5.028  -6.122  0.00  0.00    +0.002 C 
BRANCH   7  12
ATOM      9  C   UNL     1      -2.208   7.119  -2.605  0.00  0.00    +0.065 A 
ATOM     10  C   UNL     1      -2.021   7.991  -3.671  0.00  0.00    +0.016 A 
ATOM     11  C   UNL     1      -2.066   7.528  -4.982  0.00  0.00    +0.001 A 
ATOM     12  C   UNL     1      -2.360   6.198  -5.268  0.00  0.00    +0.000 A 
ATOM     13  C   UNL     1      -3.002   5.527  -4.234  0.00  0.00    +0.001 A 
ATOM     14  C   UNL     1      -2.939   5.980  -2.920  0.00  0.00    +0.016 A 
BRANCH   9  16
ATOM     15  C   UNL     1      -1.892   7.610  -0.157  0.00  0.00    +0.135 C 
ATOM     16  N   UNL     1      -1.370   7.156  -1.443  0.00  0.00    -0.236 NA
ENDBRANCH   9  16
ENDBRANCH   7  12
ENDBRANCH   1   8
BRANCH   4  17
ATOM     17  O   UNL     1       3.883   6.356  -9.212  0.00  0.00    -0.457 OA
BRANCH  17  18
ATOM     18  C   UNL     1       4.927   5.613  -9.818  0.00  0.00    +0.239 C 
BRANCH  18  19
ATOM     19  C   UNL     1       6.094   5.571  -8.863  0.00  0.00    +0.189 C 
BRANCH  19  20
ATOM     20  O   UNL     1       7.302   5.462  -9.564  0.00  0.00    -0.347 OA
BRANCH  20  21
ATOM     21  C   UNL     1       7.137   5.985 -10.837  0.00  0.00    +0.174 C 
BRANCH  21  22
ATOM     22  C   UNL     1       8.097   5.287 -11.791  0.00  0.00    +0.174 C 
BRANCH  22  23
ATOM     23  O   UNL     1       7.398   4.688 -12.828  0.00  0.00    -0.348 OA
BRANCH  23  24
ATOM     24  C   UNL     1       6.985   5.657 -13.754  0.00  0.00    +0.180 C 
BRANCH  24  25
ATOM     25  C   UNL     1       5.473   5.616 -13.942  0.00  0.00    +0.225 C 
ATOM     26  F   UNL     1       4.917   4.708 -13.063  0.00  0.00    -0.232 F 
ENDBRANCH  24  25
ENDBRANCH  23  24
ENDBRANCH  22  23
ENDBRANCH  21  22
ENDBRANCH  20  21
ENDBRANCH  19  20
ENDBRANCH  18  19
ENDBRANCH  17  18
ENDBRANCH   4  17
TORSDOF 12
ENDMDL
MODEL 6
REMARK VINA RESULT:      -7.1      1.958      3.165
REMARK  Name = 
REMARK  12 active torsions:
REMARK  status: ('A' for Active; 'I' for Inactive)
REMARK    1  A    between atoms: N_2  and  C_3
REMARK    2  A    between atoms: C_6  and  C_7
REMARK    3  A    between atoms: C_8  and  C_9
REMARK    4  A    between atoms: C_12  and  O_13
REMARK    5  A    between atoms: O_13  and  C_14
REMARK    6  A    between atoms: C_14  and  C_15
REMARK    7  A    between atoms: C_15  and  O_16
REMARK    8  A    between atoms: O_16  and  C_17
REMARK    9  A    between atoms: C_17  and  C_18
REMARK   10  A    between atoms: C_18  and  O_19
REMARK   11  A    between atoms: O_19  and  C_20
REMARK   12  A    between atoms: C_20  and  C_21
REMARK                            x       y       z     vdW  Elec       q    Type
REMARK                         _______ _______ _______ _____ _____    ______ ____
ROOT
ATOM      1  C   UNL     1       3.210   5.730  -7.952  0.00  0.00    +0.019 A 
ATOM      2  C   UNL     1       2.990   5.022  -6.775  0.00  0.00    +0.102 A 
ATOM      3  N   UNL     1       1.799   5.195  -6.196  0.00  0.00    -0.210 NA
ATOM      4  C   UNL     1       1.188   6.401  -6.271  0.00  0.00    +0.225 A 
ATOM      5  C   UNL     1       1.812   7.372  -7.027  0.00  0.00    +0.058 A 
ATOM      6  C   UNL     1       2.871   7.078  -7.877  0.00  0.00    +0.006 A 
ENDROOT
BRANCH   1   8
ATOM      7  C   UNL     1       5.539   5.442  -8.668  0.00  0.00    +0.000 C 
ATOM      8  C   UNL     1       4.249   5.384  -8.898  0.00  0.00    +0.002 C 
BRANCH   7  12
ATOM      9  C   UNL     1       7.491   5.879 -12.233  0.00  0.00    +0.065 A 
ATOM     10  C   UNL     1       6.575   6.862 -11.878  0.00  0.00    +0.016 A 
ATOM     11  C   UNL     1       6.067   6.925 -10.585  0.00  0.00    +0.001 A 
ATOM     12  C   UNL     1       6.504   6.049  -9.595  0.00  0.00    +0.000 A 
ATOM     13  C   UNL     1       7.728   5.451  -9.871  0.00  0.00    +0.001 A 
ATOM     14  C   UNL     1       8.225   5.371 -11.168  0.00  0.00    +0.016 A 
BRANCH   9  16
ATOM     15  C   UNL     1       6.879   5.794 -14.674  0.00  0.00    +0.135 C 
ATOM     16  N   UNL     1       7.380   5.150 -13.462  0.00  0.00    -0.236 NA
ENDBRANCH   9  16
ENDBRANCH   7  12
ENDBRANCH   1   8
BRANCH   4  17
ATOM     17  O   UNL     1      -0.166   6.488  -5.935  0.00  0.00    -0.457 OA
BRANCH  17  18
ATOM     18  C   UNL     1      -0.646   5.551  -4.985  0.00  0.00    +0.239 C 
BRANCH  18  19
ATOM     19  C   UNL     1      -0.216   6.006  -3.613  0.00  0.00    +0.189 C 
BRANCH  19  20
ATOM     20  O   UNL     1      -0.047   4.908  -2.759  0.00  0.00    -0.347 OA
BRANCH  20  21
ATOM     21  C   UNL     1       0.928   5.208  -1.821  0.00  0.00    +0.174 C 
BRANCH  21  22
ATOM     22  C   UNL     1       2.045   5.991  -2.497  0.00  0.00    +0.174 C 
BRANCH  22  23
ATOM     23  O   UNL     1       3.117   5.158  -2.781  0.00  0.00    -0.348 OA
BRANCH  23  24
ATOM     24  C   UNL     1       4.181   5.904  -3.308  0.00  0.00    +0.180 C 
BRANCH  24  25
ATOM     25  C   UNL     1       3.730   7.317  -3.657  0.00  0.00    +0.225 C 
ATOM     26  F   UNL     1       4.206   7.665  -4.906  0.00  0.00    -0.232 F 
ENDBRANCH  24  25
ENDBRANCH  23  24
ENDBRANCH  22  23
ENDBRANCH  21  22
ENDBRANCH  20  21
ENDBRANCH  19  20
ENDBRANCH  18  19
ENDBRANCH  17  18
ENDBRANCH   4  17
TORSDOF 12
ENDMDL
MODEL 7
REMARK VINA RESULT:      -7.1      1.801      2.507
REMARK  Name = 
REMARK  12 active torsions:
REMARK  status: ('A' for Active; 'I' for Inactive)
REMARK    1  A    between atoms: N_2  and  C_3
REMARK    2  A    between atoms: C_6  and  C_7
REMARK    3  A    between atoms: C_8  and  C_9
REMARK    4  A    between atoms: C_12  and  O_13
REMARK    5  A    between atoms: O_13  and  C_14
REMARK    6  A    between atoms: C_14  and  C_15
REMARK    7  A    between atoms: C_15  and  O_16
REMARK    8  A    between atoms: O_16  and  C_17
REMARK    9  A    between atoms: C_17  and  C_18
REMARK   10  A    between atoms: C_18  and  O_19
REMARK   11  A    between atoms: O_19  and  C_20
REMARK   12  A    between atoms: C_20  and  C_21
REMARK                            x       y       z     vdW  Elec       q    Type
REMARK                         _______ _______ _______ _____ _____    ______ ____
ROOT
ATOM      1  C   UNL     1       3.802   5.803  -6.693  0.00  0.00    +0.019 A 
ATOM      2  C   UNL     1       4.362   5.106  -5.627  0.00  0.00    +0.102 A 
ATOM      3  N   UNL     1       3.601   4.986  -4.537  0.00  0.00    -0.210 NA
ATOM      4  C   UNL     1       2.757   5.988  -4.196  0.00  0.00    +0.225 A 
ATOM      5  C   UNL     1       2.677   7.060  -5.061  0.00  0.00    +0.058 A 
ATOM      6  C   UNL     1       3.226   7.019  -6.338  0.00  0.00    +0.006 A 
ENDROOT
BRANCH   1   8
ATOM      7  C   UNL     1       5.481   5.250  -8.395  0.00  0.00    +0.000 C 
ATOM      8  C   UNL     1       4.300   5.703  -8.049  0.00  0.00    +0.002 C 
BRANCH   7  12
ATOM      9  C   UNL     1       7.353   5.776 -11.991  0.00  0.00    +0.065 A 
ATOM     10  C   UNL     1       6.329   6.657 -11.666  0.00  0.00    +0.016 A 
ATOM     11  C   UNL     1       5.823   6.709 -10.372  0.00  0.00    +0.001 A 
ATOM     12  C   UNL     1       6.363   5.930  -9.353  0.00  0.00    +0.000 A 
ATOM     13  C   UNL     1       7.649   5.470  -9.617  0.00  0.00    +0.001 A 
ATOM     14  C   UNL     1       8.146   5.400 -10.914  0.00  0.00    +0.016 A 
BRANCH   9  16
ATOM     15  C   UNL     1       6.869   5.569 -14.453  0.00  0.00    +0.135 C 
ATOM     16  N   UNL     1       7.324   4.992 -13.191  0.00  0.00    -0.236 NA
ENDBRANCH   9  16
ENDBRANCH   7  12
ENDBRANCH   1   8
BRANCH   4  17
ATOM     17  O   UNL     1       1.763   5.734  -3.247  0.00  0.00    -0.457 OA
BRANCH  17  18
ATOM     18  C   UNL     1       0.554   5.171  -3.728  0.00  0.00    +0.239 C 
BRANCH  18  19
ATOM     19  C   UNL     1      -0.597   5.891  -3.072  0.00  0.00    +0.189 C 
BRANCH  19  20
ATOM     20  O   UNL     1      -1.646   6.078  -3.983  0.00  0.00    -0.347 OA
BRANCH  20  21
ATOM     21  C   UNL     1      -1.117   6.311  -5.243  0.00  0.00    +0.174 C 
BRANCH  21  22
ATOM     22  C   UNL     1      -2.019   5.671  -6.289  0.00  0.00    +0.174 C 
BRANCH  22  23
ATOM     23  O   UNL     1      -1.264   4.951  -7.203  0.00  0.00    -0.348 OA
BRANCH  23  24
ATOM     24  C   UNL     1      -0.013   5.560  -7.381  0.00  0.00    +0.180 C 
BRANCH  24  25
ATOM     25  C   UNL     1       0.470   5.393  -8.817  0.00  0.00    +0.225 C 
ATOM     26  F   UNL     1      -0.211   6.264  -9.644  0.00  0.00    -0.232 F 
ENDBRANCH  24  25
ENDBRANCH  23  24
ENDBRANCH  22  23
ENDBRANCH  21  22
ENDBRANCH  20  21
ENDBRANCH  19  20
ENDBRANCH  18  19
ENDBRANCH  17  18
ENDBRANCH   4  17
TORSDOF 12
ENDMDL
MODEL 8
REMARK VINA RESULT:      -6.9      2.343      3.864
REMARK  Name = 
REMARK  12 active torsions:
REMARK  status: ('A' for Active; 'I' for Inactive)
REMARK    1  A    between atoms: N_2  and  C_3
REMARK    2  A    between atoms: C_6  and  C_7
REMARK    3  A    between atoms: C_8  and  C_9
REMARK    4  A    between atoms: C_12  and  O_13
REMARK    5  A    between atoms: O_13  and  C_14
REMARK    6  A    between atoms: C_14  and  C_15
REMARK    7  A    between atoms: C_15  and  O_16
REMARK    8  A    between atoms: O_16  and  C_17
REMARK    9  A    between atoms: C_17  and  C_18
REMARK   10  A    between atoms: C_18  and  O_19
REMARK   11  A    between atoms: O_19  and  C_20
REMARK   12  A    between atoms: C_20  and  C_21
REMARK                            x       y       z     vdW  Elec       q    Type
REMARK                         _______ _______ _______ _____ _____    ______ ____
ROOT
ATOM      1  C   UNL     1       2.189   4.828  -8.006  0.00  0.00    +0.019 A 
ATOM      2  C   UNL     1       0.920   5.169  -8.460  0.00  0.00    +0.102 A 
ATOM      3  N   UNL     1       0.050   5.574  -7.530  0.00  0.00    -0.210 NA
ATOM      4  C   UNL     1       0.097   5.033  -6.289  0.00  0.00    +0.225 A 
ATOM      5  C   UNL     1       1.116   4.138  -6.035  0.00  0.00    +0.058 A 
ATOM      6  C   UNL     1       2.190   3.979  -6.903  0.00  0.00    +0.006 A 
ENDROOT
BRANCH   1   8
ATOM      7  C   UNL     1       4.587   4.936  -8.511  0.00  0.00    +0.000 C 
ATOM      8  C   UNL     1       3.342   4.746  -8.876  0.00  0.00    +0.002 C 
BRANCH   7  12
ATOM      9  C   UNL     1       7.141   5.837 -11.575  0.00  0.00    +0.065 A 
ATOM     10  C   UNL     1       5.923   6.506 -11.536  0.00  0.00    +0.016 A 
ATOM     11  C   UNL     1       5.119   6.450 -10.403  0.00  0.00    +0.001 A 
ATOM     12  C   UNL     1       5.533   5.779  -9.256  0.00  0.00    +0.000 A 
ATOM     13  C   UNL     1       6.906   5.572  -9.188  0.00  0.00    +0.001 A 
ATOM     14  C   UNL     1       7.706   5.608 -10.326  0.00  0.00    +0.016 A 
BRANCH   9  16
ATOM     15  C   UNL     1       7.100   5.432 -14.059  0.00  0.00    +0.135 C 
ATOM     16  N   UNL     1       7.547   5.072 -12.716  0.00  0.00    -0.236 NA
ENDBRANCH   9  16
ENDBRANCH   7  12
ENDBRANCH   1   8
BRANCH   4  17
ATOM     17  O   UNL     1      -0.600   5.666  -5.256  0.00  0.00    -0.457 OA
BRANCH  17  18
ATOM     18  C   UNL     1      -0.010   6.837  -4.716  0.00  0.00    +0.239 C 
BRANCH  18  19
ATOM     19  C   UNL     1       0.666   6.470  -3.418  0.00  0.00    +0.189 C 
BRANCH  19  20
ATOM     20  O   UNL     1       2.057   6.603  -3.532  0.00  0.00    -0.347 OA
BRANCH  20  21
ATOM     21  C   UNL     1       2.595   6.825  -2.273  0.00  0.00    +0.174 C 
BRANCH  21  22
ATOM     22  C   UNL     1       3.714   7.852  -2.384  0.00  0.00    +0.174 C 
BRANCH  22  23
ATOM     23  O   UNL     1       4.878   7.252  -2.840  0.00  0.00    -0.348 OA
BRANCH  23  24
ATOM     24  C   UNL     1       5.204   7.738  -4.115  0.00  0.00    +0.180 C 
BRANCH  24  25
ATOM     25  C   UNL     1       4.965   6.671  -5.177  0.00  0.00    +0.225 C 
ATOM     26  F   UNL     1       3.911   7.045  -5.986  0.00  0.00    -0.232 F 
ENDBRANCH  24  25
ENDBRANCH  23  24
ENDBRANCH  22  23
ENDBRANCH  21  22
ENDBRANCH  20  21
ENDBRANCH  19  20
ENDBRANCH  18  19
ENDBRANCH  17  18
ENDBRANCH   4  17
TORSDOF 12
ENDMDL
MODEL 9
REMARK VINA RESULT:      -6.8      3.648      4.920
REMARK  Name = 
REMARK  12 active torsions:
REMARK  status: ('A' for Active; 'I' for Inactive)
REMARK    1  A    between atoms: N_2  and  C_3
REMARK    2  A    between atoms: C_6  and  C_7
REMARK    3  A    between atoms: C_8  and  C_9
REMARK    4  A    between atoms: C_12  and  O_13
REMARK    5  A    between atoms: O_13  and  C_14
REMARK    6  A    between atoms: C_14  and  C_15
REMARK    7  A    between atoms: C_15  and  O_16
REMARK    8  A    between atoms: O_16  and  C_17
REMARK    9  A    between atoms: C_17  and  C_18
REMARK   10  A    between atoms: C_18  and  O_19
REMARK   11  A    between atoms: O_19  and  C_20
REMARK   12  A    between atoms: C_20  and  C_21
REMARK                            x       y       z     vdW  Elec       q    Type
REMARK                         _______ _______ _______ _____ _____    ______ ____
ROOT
ATOM      1  C   UNL     1       3.920   5.533  -2.940  0.00  0.00    +0.019 A 
ATOM      2  C   UNL     1       4.122   4.633  -1.899  0.00  0.00    +0.102 A 
ATOM      3  N   UNL     1       3.851   5.081  -0.670  0.00  0.00    -0.210 NA
ATOM      4  C   UNL     1       4.080   6.381  -0.367  0.00  0.00    +0.225 A 
ATOM      5  C   UNL     1       4.513   7.196  -1.393  0.00  0.00    +0.058 A 
ATOM      6  C   UNL     1       4.477   6.790  -2.722  0.00  0.00    +0.006 A 
ENDROOT
BRANCH   1   8
ATOM      7  C   UNL     1       4.462   5.621  -5.331  0.00  0.00    +0.000 C 
ATOM      8  C   UNL     1       3.787   5.124  -4.322  0.00  0.00    +0.002 C 
BRANCH   7  12
ATOM      9  C   UNL     1       1.423   5.932  -8.048  0.00  0.00    +0.065 A 
ATOM     10  C   UNL     1       1.807   7.088  -7.380  0.00  0.00    +0.016 A 
ATOM     11  C   UNL     1       2.986   7.122  -6.642  0.00  0.00    +0.001 A 
ATOM     12  C   UNL     1       3.843   6.027  -6.600  0.00  0.00    +0.000 A 
ATOM     13  C   UNL     1       3.661   5.128  -7.645  0.00  0.00    +0.001 A 
ATOM     14  C   UNL     1       2.474   5.081  -8.369  0.00  0.00    +0.016 A 
BRANCH   9  16
ATOM     15  C   UNL     1      -0.682   5.432  -6.759  0.00  0.00    +0.135 C 
ATOM     16  N   UNL     1       0.073   5.450  -8.009  0.00  0.00    -0.236 NA
ENDBRANCH   9  16
ENDBRANCH   7  12
ENDBRANCH   1   8
BRANCH   4  17
ATOM     17  O   UNL     1       3.520   6.905   0.802  0.00  0.00    -0.457 OA
BRANCH  17  18
ATOM     18  C   UNL     1       2.737   8.077   0.661  0.00  0.00    +0.239 C 
BRANCH  18  19
ATOM     19  C   UNL     1       1.344   7.779   1.158  0.00  0.00    +0.189 C 
BRANCH  19  20
ATOM     20  O   UNL     1       0.922   6.517   0.717  0.00  0.00    -0.347 OA
BRANCH  20  21
ATOM     21  C   UNL     1       0.225   6.662  -0.472  0.00  0.00    +0.174 C 
BRANCH  21  22
ATOM     22  C   UNL     1       0.316   5.366  -1.265  0.00  0.00    +0.174 C 
BRANCH  22  23
ATOM     23  O   UNL     1      -0.949   4.940  -1.643  0.00  0.00    -0.348 OA
BRANCH  23  24
ATOM     24  C   UNL     1      -1.357   5.613  -2.804  0.00  0.00    +0.180 C 
BRANCH  24  25
ATOM     25  C   UNL     1      -2.853   5.440  -3.032  0.00  0.00    +0.225 C 
ATOM     26  F   UNL     1      -3.083   5.008  -4.323  0.00  0.00    -0.232 F 
ENDBRANCH  24  25
ENDBRANCH  23  24
ENDBRANCH  22  23
ENDBRANCH  21  22
ENDBRANCH  20  21
ENDBRANCH  19  20
ENDBRANCH  18  19
ENDBRANCH  17  18
ENDBRANCH   4  17
TORSDOF 12
ENDMDL
