MODEL 1
REMARK VINA RESULT:      -6.2      0.000      0.000
REMARK  Name = 
REMARK  3 active torsions:
REMARK  status: ('A' for Active; 'I' for Inactive)
REMARK    1  A    between atoms: C_2  and  C_3
REMARK    2  A    between atoms: C_3  and  C_5
REMARK    3  A    between atoms: C_5  and  C_6
REMARK                            x       y       z     vdW  Elec       q    Type
REMARK                         _______ _______ _______ _____ _____    ______ ____
ROOT
ATOM      1  C   UNL     1       1.232   6.115  -6.623  0.00  0.00    +0.141 C 
ATOM      2  C   UNL     1       1.729   4.946  -5.871  0.00  0.00    +0.257 C 
ATOM      3  O   UNL     1       1.281   3.778  -6.039  0.00  0.00    -0.272 OA
ATOM      4  N   UNL     1       2.965   5.061  -5.207  0.00  0.00    -0.125 NA
ATOM      5  C   UNL     1       3.869   6.126  -5.428  0.00  0.00    +0.352 C 
ATOM      6  O   UNL     1       4.908   6.120  -4.717  0.00  0.00    -0.248 OA
ATOM      7  N   UNL     1       3.390   7.305  -6.077  0.00  0.00    -0.125 NA
ATOM      8  C   UNL     1       2.117   7.233  -6.720  0.00  0.00    +0.257 C 
ATOM      9  O   UNL     1       1.952   8.068  -7.662  0.00  0.00    -0.272 OA
ENDROOT
BRANCH   1  10
ATOM     10  C   UNL     1      -0.189   6.544  -5.914  0.00  0.00    +0.017 C 
ATOM     11  C   UNL     1      -0.081   5.492  -4.644  0.00  0.00    +0.001 C 
BRANCH  10  13
ATOM     12  C   UNL     1      -2.442   5.599  -6.307  0.00  0.00    +0.000 C 
ATOM     13  C   UNL     1      -1.070   5.459  -6.797  0.00  0.00    +0.001 C 
ENDBRANCH  10  13
ENDBRANCH   1  10
BRANCH   1  14
ATOM     14  C   UNL     1       0.834   5.560  -7.989  0.00  0.00    +0.018 C 
ATOM     15  C   UNL     1       2.004   5.118  -8.801  0.00  0.00    +0.001 C 
ENDBRANCH   1  14
TORSDOF 3
ENDMDL
MODEL 2
REMARK VINA RESULT:      -6.1      2.031      3.644
REMARK  Name = 
REMARK  3 active torsions:
REMARK  status: ('A' for Active; 'I' for Inactive)
REMARK    1  A    between atoms: C_2  and  C_3
REMARK    2  A    between atoms: C_3  and  C_5
REMARK    3  A    between atoms: C_5  and  C_6
REMARK                            x       y       z     vdW  Elec       q    Type
REMARK                         _______ _______ _______ _____ _____    ______ ____
ROOT
ATOM      1  C   UNL     1       1.738   6.090  -7.078  0.00  0.00    +0.141 C 
ATOM      2  C   UNL     1       1.810   7.178  -8.073  0.00  0.00    +0.257 C 
ATOM      3  O   UNL     1       2.208   8.342  -7.793  0.00  0.00    -0.272 OA
ATOM      4  N   UNL     1       1.771   6.832  -9.437  0.00  0.00    -0.125 NA
ATOM      5  C   UNL     1       1.928   5.508  -9.907  0.00  0.00    +0.352 C 
ATOM      6  O   UNL     1       1.813   5.350 -11.151  0.00  0.00    -0.248 OA
ATOM      7  N   UNL     1       1.778   4.432  -8.980  0.00  0.00    -0.125 NA
ATOM      8  C   UNL     1       1.766   4.756  -7.590  0.00  0.00    +0.257 C 
ATOM      9  O   UNL     1       2.125   3.811  -6.822  0.00  0.00    -0.272 OA
ENDROOT
BRANCH   1  10
ATOM     10  C   UNL     1       0.372   6.361  -6.201  0.00  0.00    +0.017 C 
ATOM     11  C   UNL     1       0.617   5.147  -5.107  0.00  0.00    +0.001 C 
BRANCH  10  13
ATOM     12  C   UNL     1      -1.887   5.413  -6.553  0.00  0.00    +0.000 C 
ATOM     13  C   UNL     1      -0.553   5.377  -7.155  0.00  0.00    +0.001 C 
ENDBRANCH  10  13
ENDBRANCH   1  10
BRANCH   1  14
ATOM     14  C   UNL     1       2.884   6.372  -6.108  0.00  0.00    +0.018 C 
ATOM     15  C   UNL     1       4.216   5.979  -6.653  0.00  0.00    +0.001 C 
ENDBRANCH   1  14
TORSDOF 3
ENDMDL
MODEL 3
REMARK VINA RESULT:      -6.0      2.068      4.478
REMARK  Name = 
REMARK  3 active torsions:
REMARK  status: ('A' for Active; 'I' for Inactive)
REMARK    1  A    between atoms: C_2  and  C_3
REMARK    2  A    between atoms: C_3  and  C_5
REMARK    3  A    between atoms: C_5  and  C_6
REMARK                            x       y       z     vdW  Elec       q    Type
REMARK                         _______ _______ _______ _____ _____    ______ ____
ROOT
ATOM      1  C   UNL     1       2.854   6.188  -8.448  0.00  0.00    +0.141 C 
ATOM      2  C   UNL     1       2.691   7.387  -7.602  0.00  0.00    +0.257 C 
ATOM      3  O   UNL     1       2.109   8.435  -7.998  0.00  0.00    -0.272 OA
ATOM      4  N   UNL     1       2.869   7.247  -6.213  0.00  0.00    -0.125 NA
ATOM      5  C   UNL     1       2.938   5.994  -5.561  0.00  0.00    +0.352 C 
ATOM      6  O   UNL     1       3.157   6.031  -4.322  0.00  0.00    -0.248 OA
ATOM      7  N   UNL     1       3.182   4.827  -6.348  0.00  0.00    -0.125 NA
ATOM      8  C   UNL     1       3.056   4.950  -7.765  0.00  0.00    +0.257 C 
ATOM      9  O   UNL     1       2.788   3.865  -8.368  0.00  0.00    -0.272 OA
ENDROOT
BRANCH   1  10
ATOM     10  C   UNL     1       4.105   6.515  -9.466  0.00  0.00    +0.017 C 
ATOM     11  C   UNL     1       3.653   5.456 -10.652  0.00  0.00    +0.001 C 
BRANCH  10  13
ATOM     12  C   UNL     1       6.430   5.687  -9.286  0.00  0.00    +0.000 C 
ATOM     13  C   UNL     1       5.094   5.386  -8.772  0.00  0.00    +0.001 C 
ENDBRANCH  10  13
ENDBRANCH   1  10
BRANCH   1  14
ATOM     14  C   UNL     1       1.618   6.171  -9.345  0.00  0.00    +0.018 C 
ATOM     15  C   UNL     1       0.385   5.735  -8.627  0.00  0.00    +0.001 C 
ENDBRANCH   1  14
TORSDOF 3
ENDMDL
MODEL 4
REMARK VINA RESULT:      -5.9      1.849      4.246
REMARK  Name = 
REMARK  3 active torsions:
REMARK  status: ('A' for Active; 'I' for Inactive)
REMARK    1  A    between atoms: C_2  and  C_3
REMARK    2  A    between atoms: C_3  and  C_5
REMARK    3  A    between atoms: C_5  and  C_6
REMARK                            x       y       z     vdW  Elec       q    Type
REMARK                         _______ _______ _______ _____ _____    ______ ____
ROOT
ATOM      1  C   UNL     1       2.807   5.596  -6.709  0.00  0.00    +0.141 C 
ATOM      2  C   UNL     1       2.196   6.940  -6.722  0.00  0.00    +0.257 C 
ATOM      3  O   UNL     1       2.570   7.859  -7.503  0.00  0.00    -0.272 OA
ATOM      4  N   UNL     1       0.942   7.105  -6.104  0.00  0.00    -0.125 NA
ATOM      5  C   UNL     1       0.125   6.022  -5.705  0.00  0.00    +0.352 C 
ATOM      6  O   UNL     1      -0.944   6.329  -5.114  0.00  0.00    -0.248 OA
ATOM      7  N   UNL     1       0.713   4.725  -5.601  0.00  0.00    -0.125 NA
ATOM      8  C   UNL     1       2.006   4.539  -6.177  0.00  0.00    +0.257 C 
ATOM      9  O   UNL     1       2.272   3.342  -6.506  0.00  0.00    -0.272 OA
ENDROOT
BRANCH   1  10
ATOM     10  C   UNL     1       4.221   5.745  -5.880  0.00  0.00    +0.017 C 
ATOM     11  C   UNL     1       3.784   4.784  -4.608  0.00  0.00    +0.001 C 
BRANCH  10  13
ATOM     12  C   UNL     1       4.910   7.575  -4.365  0.00  0.00    +0.000 C 
ATOM     13  C   UNL     1       3.725   7.105  -5.083  0.00  0.00    +0.001 C 
ENDBRANCH  10  13
ENDBRANCH   1  10
BRANCH   1  14
ATOM     14  C   UNL     1       3.228   5.345  -8.155  0.00  0.00    +0.018 C 
ATOM     15  C   UNL     1       4.702   5.165  -8.308  0.00  0.00    +0.001 C 
ENDBRANCH   1  14
TORSDOF 3
ENDMDL
MODEL 5
REMARK VINA RESULT:      -5.9      2.081      3.017
REMARK  Name = 
REMARK  3 active torsions:
REMARK  status: ('A' for Active; 'I' for Inactive)
REMARK    1  A    between atoms: C_2  and  C_3
REMARK    2  A    between atoms: C_3  and  C_5
REMARK    3  A    between atoms: C_5  and  C_6
REMARK                            x       y       z     vdW  Elec       q    Type
REMARK                         _______ _______ _______ _____ _____    ______ ____
ROOT
ATOM      1  C   UNL     1       1.874   5.903  -8.500  0.00  0.00    +0.141 C 
ATOM      2  C   UNL     1       2.179   4.559  -7.972  0.00  0.00    +0.257 C 
ATOM      3  O   UNL     1       2.575   3.607  -8.699  0.00  0.00    -0.272 OA
ATOM      4  N   UNL     1       2.375   4.420  -6.585  0.00  0.00    -0.125 NA
ATOM      5  C   UNL     1       2.551   5.519  -5.712  0.00  0.00    +0.352 C 
ATOM      6  O   UNL     1       2.658   5.237  -4.490  0.00  0.00    -0.248 OA
ATOM      7  N   UNL     1       2.182   6.821  -6.169  0.00  0.00    -0.125 NA
ATOM      8  C   UNL     1       1.930   6.982  -7.565  0.00  0.00    +0.257 C 
ATOM      9  O   UNL     1       2.097   8.164  -8.000  0.00  0.00    -0.272 OA
ENDROOT
BRANCH   1  10
ATOM     10  C   UNL     1       0.385   5.795  -9.192  0.00  0.00    +0.017 C 
ATOM     11  C   UNL     1       0.748   4.541 -10.205  0.00  0.00    +0.001 C 
BRANCH  10  13
ATOM     12  C   UNL     1      -0.452   6.956 -11.211  0.00  0.00    +0.000 C 
ATOM     13  C   UNL     1       0.741   6.905 -10.365  0.00  0.00    +0.001 C 
ENDBRANCH  10  13
ENDBRANCH   1  10
BRANCH   1  14
ATOM     14  C   UNL     1       2.834   6.089  -9.673  0.00  0.00    +0.018 C 
ATOM     15  C   UNL     1       4.262   6.166  -9.247  0.00  0.00    +0.001 C 
ENDBRANCH   1  14
TORSDOF 3
ENDMDL
MODEL 6
REMARK VINA RESULT:      -5.8      2.081      4.057
REMARK  Name = 
REMARK  3 active torsions:
REMARK  status: ('A' for Active; 'I' for Inactive)
REMARK    1  A    between atoms: C_2  and  C_3
REMARK    2  A    between atoms: C_3  and  C_5
REMARK    3  A    between atoms: C_5  and  C_6
REMARK                            x       y       z     vdW  Elec       q    Type
REMARK                         _______ _______ _______ _____ _____    ______ ____
ROOT
ATOM      1  C   UNL     1       2.567   6.115  -6.846  0.00  0.00    +0.141 C 
ATOM      2  C   UNL     1       2.302   4.708  -7.205  0.00  0.00    +0.257 C 
ATOM      3  O   UNL     1       1.993   3.827  -6.355  0.00  0.00    -0.272 OA
ATOM      4  N   UNL     1       2.038   4.406  -8.555  0.00  0.00    -0.125 NA
ATOM      5  C   UNL     1       1.760   5.391  -9.530  0.00  0.00    +0.352 C 
ATOM      6  O   UNL     1       1.601   4.969 -10.706  0.00  0.00    -0.248 OA
ATOM      7  N   UNL     1       2.089   6.750  -9.242  0.00  0.00    -0.125 NA
ATOM      8  C   UNL     1       2.407   7.079  -7.889  0.00  0.00    +0.257 C 
ATOM      9  O   UNL     1       2.206   8.293  -7.578  0.00  0.00    -0.272 OA
ENDROOT
BRANCH   1  10
ATOM     10  C   UNL     1       4.095   6.150  -6.236  0.00  0.00    +0.017 C 
ATOM     11  C   UNL     1       3.889   4.909  -5.164  0.00  0.00    +0.001 C 
BRANCH  10  13
ATOM     12  C   UNL     1       4.983   7.578  -4.420  0.00  0.00    +0.000 C 
ATOM     13  C   UNL     1       3.714   7.271  -5.083  0.00  0.00    +0.001 C 
ENDBRANCH  10  13
ENDBRANCH   1  10
BRANCH   1  14
ATOM     14  C   UNL     1       1.663   6.390  -5.647  0.00  0.00    +0.018 C 
ATOM     15  C   UNL     1       0.214   6.388  -5.999  0.00  0.00    +0.001 C 
ENDBRANCH   1  14
TORSDOF 3
ENDMDL
MODEL 7
REMARK VINA RESULT:      -5.8      2.606      4.250
REMARK  Name = 
REMARK  3 active torsions:
REMARK  status: ('A' for Active; 'I' for Inactive)
REMARK    1  A    between atoms: C_2  and  C_3
REMARK    2  A    between atoms: C_3  and  C_5
REMARK    3  A    between atoms: C_5  and  C_6
REMARK                            x       y       z     vdW  Elec       q    Type
REMARK                         _______ _______ _______ _____ _____    ______ ____
ROOT
ATOM      1  C   UNL     1       1.804   5.699  -8.509  0.00  0.00    +0.141 C 
ATOM      2  C   UNL     1       2.374   7.052  -8.664  0.00  0.00    +0.257 C 
ATOM      3  O   UNL     1       2.014   8.036  -7.960  0.00  0.00    -0.272 OA
ATOM      4  N   UNL     1       3.589   7.183  -9.363  0.00  0.00    -0.125 NA
ATOM      5  C   UNL     1       4.416   6.086  -9.695  0.00  0.00    +0.352 C 
ATOM      6  O   UNL     1       5.443   6.357 -10.371  0.00  0.00    -0.248 OA
ATOM      7  N   UNL     1       3.862   4.771  -9.636  0.00  0.00    -0.125 NA
ATOM      8  C   UNL     1       2.607   4.613  -8.975  0.00  0.00    +0.257 C 
ATOM      9  O   UNL     1       2.394   3.449  -8.513  0.00  0.00    -0.272 OA
ENDROOT
BRANCH   1  10
ATOM     10  C   UNL     1       0.345   5.728  -9.270  0.00  0.00    +0.017 C 
ATOM     11  C   UNL     1       0.668   4.496 -10.323  0.00  0.00    +0.001 C 
BRANCH  10  13
ATOM     12  C   UNL     1      -0.313   7.033 -11.267  0.00  0.00    +0.000 C 
ATOM     13  C   UNL     1       0.832   6.859 -10.373  0.00  0.00    +0.001 C 
ENDBRANCH  10  13
ENDBRANCH   1  10
BRANCH   1  14
ATOM     14  C   UNL     1       1.465   5.586  -7.024  0.00  0.00    +0.018 C 
ATOM     15  C   UNL     1       0.004   5.420  -6.773  0.00  0.00    +0.001 C 
ENDBRANCH   1  14
TORSDOF 3
ENDMDL
MODEL 8
REMARK VINA RESULT:      -5.7      0.975      3.271
REMARK  Name = 
REMARK  3 active torsions:
REMARK  status: ('A' for Active; 'I' for Inactive)
REMARK    1  A    between atoms: C_2  and  C_3
REMARK    2  A    between atoms: C_3  and  C_5
REMARK    3  A    between atoms: C_5  and  C_6
REMARK                            x       y       z     vdW  Elec       q    Type
REMARK                         _______ _______ _______ _____ _____    ______ ____
ROOT
ATOM      1  C   UNL     1       1.713   5.775  -7.160  0.00  0.00    +0.141 C 
ATOM      2  C   UNL     1       2.404   7.078  -7.093  0.00  0.00    +0.257 C 
ATOM      3  O   UNL     1       1.899   8.149  -7.530  0.00  0.00    -0.272 OA
ATOM      4  N   UNL     1       3.495   7.205  -6.212  0.00  0.00    -0.125 NA
ATOM      5  C   UNL     1       3.800   6.253  -5.212  0.00  0.00    +0.352 C 
ATOM      6  O   UNL     1       4.841   6.478  -4.540  0.00  0.00    -0.248 OA
ATOM      7  N   UNL     1       3.212   4.955  -5.303  0.00  0.00    -0.125 NA
ATOM      8  C   UNL     1       2.134   4.782  -6.223  0.00  0.00    +0.257 C 
ATOM      9  O   UNL     1       1.342   3.831  -5.938  0.00  0.00    -0.272 OA
ENDROOT
BRANCH   1  10
ATOM     10  C   UNL     1       1.891   5.243  -8.707  0.00  0.00    +0.017 C 
ATOM     11  C   UNL     1       2.188   6.726  -9.374  0.00  0.00    +0.001 C 
BRANCH  10  13
ATOM     12  C   UNL     1       0.132   4.860 -10.405  0.00  0.00    +0.000 C 
ATOM     13  C   UNL     1       0.276   5.366  -9.040  0.00  0.00    +0.001 C 
ENDBRANCH  10  13
ENDBRANCH   1  10
BRANCH   1  14
ATOM     14  C   UNL     1       0.229   6.113  -7.034  0.00  0.00    +0.018 C 
ATOM     15  C   UNL     1      -0.144   6.590  -5.671  0.00  0.00    +0.001 C 
ENDBRANCH   1  14
TORSDOF 3
ENDMDL
MODEL 9
REMARK VINA RESULT:      -5.6      1.753      2.077
REMARK  Name = 
REMARK  3 active torsions:
REMARK  status: ('A' for Active; 'I' for Inactive)
REMARK    1  A    between atoms: C_2  and  C_3
REMARK    2  A    between atoms: C_3  and  C_5
REMARK    3  A    between atoms: C_5  and  C_6
REMARK                            x       y       z     vdW  Elec       q    Type
REMARK                         _______ _______ _______ _____ _____    ______ ____
ROOT
ATOM      1  C   UNL     1       1.187   5.622  -6.138  0.00  0.00    +0.141 C 
ATOM      2  C   UNL     1       2.341   4.714  -6.287  0.00  0.00    +0.257 C 
ATOM      3  O   UNL     1       2.804   4.368  -7.409  0.00  0.00    -0.272 OA
ATOM      4  N   UNL     1       3.168   4.503  -5.167  0.00  0.00    -0.125 NA
ATOM      5  C   UNL     1       3.111   5.299  -4.000  0.00  0.00    +0.352 C 
ATOM      6  O   UNL     1       3.875   4.951  -3.061  0.00  0.00    -0.248 OA
ATOM      7  N   UNL     1       1.963   6.122  -3.789  0.00  0.00    -0.125 NA
ATOM      8  C   UNL     1       1.080   6.317  -4.894  0.00  0.00    +0.257 C 
ATOM      9  O   UNL     1       0.397   7.386  -4.844  0.00  0.00    -0.272 OA
ENDROOT
BRANCH   1  10
ATOM     10  C   UNL     1      -0.153   4.710  -6.425  0.00  0.00    +0.017 C 
ATOM     11  C   UNL     1      -0.526   5.394  -7.883  0.00  0.00    +0.001 C 
BRANCH  10  13
ATOM     12  C   UNL     1      -2.413   5.717  -6.375  0.00  0.00    +0.000 C 
ATOM     13  C   UNL     1      -1.155   5.755  -5.627  0.00  0.00    +0.001 C 
ENDBRANCH  10  13
ENDBRANCH   1  10
BRANCH   1  14
ATOM     14  C   UNL     1       1.277   6.568  -7.334  0.00  0.00    +0.018 C 
ATOM     15  C   UNL     1       2.467   7.465  -7.277  0.00  0.00    +0.001 C 
ENDBRANCH   1  14
TORSDOF 3
ENDMDL
