MODEL 1
REMARK VINA RESULT:      -6.8      0.000      0.000
REMARK  Name = 
REMARK  4 active torsions:
REMARK  status: ('A' for Active; 'I' for Inactive)
REMARK    1  A    between atoms: O_2  and  C_3
REMARK    2  A    between atoms: C_3  and  C_5
REMARK    3  A    between atoms: C_5  and  C_6
REMARK    4  A    between atoms: C_5  and  C_12
REMARK                            x       y       z     vdW  Elec       q    Type
REMARK                         _______ _______ _______ _____ _____    ______ ____
ROOT
ATOM      1  C   UNL     1       3.874   5.344 -10.646  0.00  0.00    +0.137 C 
ENDROOT
BRANCH   1   2
ATOM      2  C   UNL     1       2.627   6.509 -10.745  0.00  0.00    +0.087 C 
ATOM      3  N   UNL     1       1.535   5.410 -10.956  0.00  0.00    -0.219 NA
ATOM      4  C   UNL     1       0.347   5.881 -10.246  0.00  0.00    +0.089 C 
ATOM      5  C   UNL     1       0.429   5.417  -8.791  0.00  0.00    +0.019 C 
ATOM      6  C   UNL     1       1.943   5.310  -8.588  0.00  0.00    +0.003 C 
ATOM      7  C   UNL     1       2.428   6.593  -9.139  0.00  0.00    +0.018 C 
ENDBRANCH   1   2
BRANCH   1   8
ATOM      8  C   UNL     1       4.989   6.362 -10.105  0.00  0.00    -0.011 A 
ATOM      9  C   UNL     1       6.022   5.772  -9.382  0.00  0.00    -0.004 A 
ATOM     10  C   UNL     1       7.345   5.860  -9.691  0.00  0.00    -0.000 A 
ATOM     11  C   UNL     1       7.734   7.009 -10.335  0.00  0.00    -0.000 A 
ATOM     12  C   UNL     1       6.793   7.674 -11.081  0.00  0.00    -0.000 A 
ATOM     13  C   UNL     1       5.493   7.242 -11.061  0.00  0.00    -0.004 A 
ENDBRANCH   1   8
BRANCH   1  14
ATOM     14  C   UNL     1       4.272   5.529 -12.177  0.00  0.00    +0.322 C 
ATOM     15  O   UNL     1       5.178   4.746 -12.577  0.00  0.00    -0.250 OA
BRANCH  14  17
ATOM     16  C   UNL     1       3.557   5.772 -14.243  0.00  0.00    +0.256 C 
ATOM     17  O   UNL     1       3.414   6.024 -13.100  0.00  0.00    -0.444 OA
ENDBRANCH  14  17
ENDBRANCH   1  14
TORSDOF 4
ENDMDL
MODEL 2
REMARK VINA RESULT:      -6.8      4.300      6.955
REMARK  Name = 
REMARK  4 active torsions:
REMARK  status: ('A' for Active; 'I' for Inactive)
REMARK    1  A    between atoms: O_2  and  C_3
REMARK    2  A    between atoms: C_3  and  C_5
REMARK    3  A    between atoms: C_5  and  C_6
REMARK    4  A    between atoms: C_5  and  C_12
REMARK                            x       y       z     vdW  Elec       q    Type
REMARK                         _______ _______ _______ _____ _____    ______ ____
ROOT
ATOM      1  C   UNL     1       1.926   7.157  -5.835  0.00  0.00    +0.137 C 
ENDROOT
BRANCH   1   2
ATOM      2  C   UNL     1       3.292   6.178  -5.525  0.00  0.00    +0.087 C 
ATOM      3  N   UNL     1       4.230   7.422  -5.395  0.00  0.00    -0.219 NA
ATOM      4  C   UNL     1       5.191   7.094  -4.342  0.00  0.00    +0.089 C 
ATOM      5  C   UNL     1       4.595   7.493  -2.992  0.00  0.00    +0.019 C 
ATOM      6  C   UNL     1       3.094   7.384  -3.275  0.00  0.00    +0.003 C 
ATOM      7  C   UNL     1       2.990   6.067  -3.937  0.00  0.00    +0.018 C 
ENDBRANCH   1   2
BRANCH   1   8
ATOM      8  C   UNL     1       0.896   5.936  -5.980  0.00  0.00    -0.011 A 
ATOM      9  C   UNL     1      -0.104   5.895  -5.012  0.00  0.00    -0.004 A 
ATOM     10  C   UNL     1      -1.442   5.909  -5.267  0.00  0.00    -0.000 A 
ATOM     11  C   UNL     1      -1.831   5.350  -6.459  0.00  0.00    -0.000 A 
ATOM     12  C   UNL     1      -0.920   5.339  -7.487  0.00  0.00    -0.000 A 
ATOM     13  C   UNL     1       0.359   5.771  -7.255  0.00  0.00    -0.004 A 
ENDBRANCH   1   8
BRANCH   1  14
ATOM     14  C   UNL     1       2.243   7.237  -7.394  0.00  0.00    +0.322 C 
ATOM     15  O   UNL     1       2.130   8.393  -7.889  0.00  0.00    -0.250 OA
BRANCH  14  17
ATOM     16  C   UNL     1       3.513   6.616  -9.078  0.00  0.00    +0.256 C 
ATOM     17  O   UNL     1       3.065   6.361  -8.018  0.00  0.00    -0.444 OA
ENDBRANCH  14  17
ENDBRANCH   1  14
TORSDOF 4
ENDMDL
MODEL 3
REMARK VINA RESULT:      -6.7      3.157      6.137
REMARK  Name = 
REMARK  4 active torsions:
REMARK  status: ('A' for Active; 'I' for Inactive)
REMARK    1  A    between atoms: O_2  and  C_3
REMARK    2  A    between atoms: C_3  and  C_5
REMARK    3  A    between atoms: C_5  and  C_6
REMARK    4  A    between atoms: C_5  and  C_12
REMARK                            x       y       z     vdW  Elec       q    Type
REMARK                         _______ _______ _______ _____ _____    ______ ____
ROOT
ATOM      1  C   UNL     1       1.281   6.099  -8.114  0.00  0.00    +0.137 C 
ENDROOT
BRANCH   1   2
ATOM      2  C   UNL     1       2.098   4.615  -8.339  0.00  0.00    +0.087 C 
ATOM      3  N   UNL     1       3.101   5.252  -9.355  0.00  0.00    -0.219 NA
ATOM      4  C   UNL     1       4.389   4.603  -9.111  0.00  0.00    +0.089 C 
ATOM      5  C   UNL     1       5.125   5.372  -8.013  0.00  0.00    +0.019 C 
ATOM      6  C   UNL     1       3.959   5.980  -7.229  0.00  0.00    +0.003 C 
ATOM      7  C   UNL     1       3.059   4.822  -7.051  0.00  0.00    +0.018 C 
ENDBRANCH   1   2
BRANCH   1   8
ATOM      8  C   UNL     1       0.256   5.541  -7.015  0.00  0.00    -0.011 A 
ATOM      9  C   UNL     1       0.312   6.183  -5.781  0.00  0.00    -0.004 A 
ATOM     10  C   UNL     1      -0.736   6.803  -5.172  0.00  0.00    -0.000 A 
ATOM     11  C   UNL     1      -1.979   6.291  -5.450  0.00  0.00    -0.000 A 
ATOM     12  C   UNL     1      -2.149   5.637  -6.645  0.00  0.00    -0.000 A 
ATOM     13  C   UNL     1      -1.062   5.419  -7.451  0.00  0.00    -0.004 A 
ENDBRANCH   1   8
BRANCH   1  14
ATOM     14  C   UNL     1       0.302   5.833  -9.342  0.00  0.00    +0.322 C 
ATOM     15  O   UNL     1       0.132   6.831 -10.096  0.00  0.00    -0.250 OA
BRANCH  14  17
ATOM     16  C   UNL     1      -0.126   4.478 -11.019  0.00  0.00    +0.256 C 
ATOM     17  O   UNL     1       0.113   4.602  -9.872  0.00  0.00    -0.444 OA
ENDBRANCH  14  17
ENDBRANCH   1  14
TORSDOF 4
ENDMDL
MODEL 4
REMARK VINA RESULT:      -6.6      4.422      7.397
REMARK  Name = 
REMARK  4 active torsions:
REMARK  status: ('A' for Active; 'I' for Inactive)
REMARK    1  A    between atoms: O_2  and  C_3
REMARK    2  A    between atoms: C_3  and  C_5
REMARK    3  A    between atoms: C_5  and  C_6
REMARK    4  A    between atoms: C_5  and  C_12
REMARK                            x       y       z     vdW  Elec       q    Type
REMARK                         _______ _______ _______ _____ _____    ______ ____
ROOT
ATOM      1  C   UNL     1       1.519   5.302  -6.096  0.00  0.00    +0.137 C 
ENDROOT
BRANCH   1   2
ATOM      2  C   UNL     1       2.588   6.284  -6.999  0.00  0.00    +0.087 C 
ATOM      3  N   UNL     1       3.767   5.275  -6.813  0.00  0.00    -0.219 NA
ATOM      4  C   UNL     1       4.520   5.299  -8.067  0.00  0.00    +0.089 C 
ATOM      5  C   UNL     1       3.900   4.286  -9.031  0.00  0.00    +0.019 C 
ATOM      6  C   UNL     1       2.450   4.245  -8.543  0.00  0.00    +0.003 C 
ATOM      7  C   UNL     1       2.113   5.680  -8.425  0.00  0.00    +0.018 C 
ENDBRANCH   1   2
BRANCH   1   8
ATOM      8  C   UNL     1       0.231   6.230  -6.327  0.00  0.00    -0.011 A 
ATOM      9  C   UNL     1      -0.866   5.582  -6.886  0.00  0.00    -0.004 A 
ATOM     10  C   UNL     1      -2.104   5.510  -6.324  0.00  0.00    -0.000 A 
ATOM     11  C   UNL     1      -2.461   6.566  -5.524  0.00  0.00    -0.000 A 
ATOM     12  C   UNL     1      -1.455   7.278  -4.918  0.00  0.00    -0.000 A 
ATOM     13  C   UNL     1      -0.151   6.987  -5.221  0.00  0.00    -0.004 A 
ENDBRANCH   1   8
BRANCH   1  14
ATOM     14  C   UNL     1       1.924   5.994  -4.720  0.00  0.00    +0.322 C 
ATOM     15  O   UNL     1       1.905   5.219  -3.723  0.00  0.00    -0.250 OA
BRANCH  14  17
ATOM     16  C   UNL     1       3.295   7.347  -3.660  0.00  0.00    +0.256 C 
ATOM     17  O   UNL     1       2.729   7.081  -4.658  0.00  0.00    -0.444 OA
ENDBRANCH  14  17
ENDBRANCH   1  14
TORSDOF 4
ENDMDL
MODEL 5
REMARK VINA RESULT:      -6.6      4.569      7.193
REMARK  Name = 
REMARK  4 active torsions:
REMARK  status: ('A' for Active; 'I' for Inactive)
REMARK    1  A    between atoms: O_2  and  C_3
REMARK    2  A    between atoms: C_3  and  C_5
REMARK    3  A    between atoms: C_5  and  C_6
REMARK    4  A    between atoms: C_5  and  C_12
REMARK                            x       y       z     vdW  Elec       q    Type
REMARK                         _______ _______ _______ _____ _____    ______ ____
ROOT
ATOM      1  C   UNL     1       1.748   6.377  -6.005  0.00  0.00    +0.137 C 
ENDROOT
BRANCH   1   2
ATOM      2  C   UNL     1       2.662   5.212  -5.151  0.00  0.00    +0.087 C 
ATOM      3  N   UNL     1       4.011   5.907  -5.528  0.00  0.00    -0.219 NA
ATOM      4  C   UNL     1       4.880   5.761  -4.360  0.00  0.00    +0.089 C 
ATOM      5  C   UNL     1       4.626   6.932  -3.411  0.00  0.00    +0.019 C 
ATOM      6  C   UNL     1       3.176   7.292  -3.748  0.00  0.00    +0.003 C 
ATOM      7  C   UNL     1       2.509   5.973  -3.729  0.00  0.00    +0.018 C 
ENDBRANCH   1   2
BRANCH   1   8
ATOM      8  C   UNL     1       0.321   5.739  -5.648  0.00  0.00    -0.011 A 
ATOM      9  C   UNL     1      -0.470   6.507  -4.799  0.00  0.00    -0.004 A 
ATOM     10  C   UNL     1      -1.723   6.957  -5.088  0.00  0.00    -0.000 A 
ATOM     11  C   UNL     1      -2.461   6.169  -5.935  0.00  0.00    -0.000 A 
ATOM     12  C   UNL     1      -1.781   5.369  -6.820  0.00  0.00    -0.000 A 
ATOM     13  C   UNL     1      -0.415   5.298  -6.747  0.00  0.00    -0.004 A 
ENDBRANCH   1   8
BRANCH   1  14
ATOM     14  C   UNL     1       1.894   5.592  -7.383  0.00  0.00    +0.322 C 
ATOM     15  O   UNL     1       2.190   6.324  -8.369  0.00  0.00    -0.250 OA
BRANCH  14  17
ATOM     16  C   UNL     1       2.597   3.810  -8.461  0.00  0.00    +0.256 C 
ATOM     17  O   UNL     1       2.229   4.283  -7.446  0.00  0.00    -0.444 OA
ENDBRANCH  14  17
ENDBRANCH   1  14
TORSDOF 4
ENDMDL
MODEL 6
REMARK VINA RESULT:      -6.6      7.111      9.247
REMARK  Name = 
REMARK  4 active torsions:
REMARK  status: ('A' for Active; 'I' for Inactive)
REMARK    1  A    between atoms: O_2  and  C_3
REMARK    2  A    between atoms: C_3  and  C_5
REMARK    3  A    between atoms: C_5  and  C_6
REMARK    4  A    between atoms: C_5  and  C_12
REMARK                            x       y       z     vdW  Elec       q    Type
REMARK                         _______ _______ _______ _____ _____    ______ ____
ROOT
ATOM      1  C   UNL     1       0.722   5.263  -3.890  0.00  0.00    +0.137 C 
ENDROOT
BRANCH   1   2
ATOM      2  C   UNL     1       1.944   6.418  -3.581  0.00  0.00    +0.087 C 
ATOM      3  N   UNL     1       2.798   5.386  -2.775  0.00  0.00    -0.219 NA
ATOM      4  C   UNL     1       4.195   5.689  -3.086  0.00  0.00    +0.089 C 
ATOM      5  C   UNL     1       4.594   4.924  -4.348  0.00  0.00    +0.019 C 
ATOM      6  C   UNL     1       3.246   4.782  -5.060  0.00  0.00    +0.003 C 
ATOM      7  C   UNL     1       2.702   6.154  -4.988  0.00  0.00    +0.018 C 
ENDBRANCH   1   2
BRANCH   1   8
ATOM      8  C   UNL     1      -0.100   6.185  -4.913  0.00  0.00    -0.011 A 
ATOM      9  C   UNL     1      -0.673   5.506  -5.985  0.00  0.00    -0.004 A 
ATOM     10  C   UNL     1      -2.001   5.500  -6.289  0.00  0.00    -0.000 A 
ATOM     11  C   UNL     1      -2.701   6.627  -5.938  0.00  0.00    -0.000 A 
ATOM     12  C   UNL     1      -2.225   7.374  -4.889  0.00  0.00    -0.000 A 
ATOM     13  C   UNL     1      -1.025   7.040  -4.317  0.00  0.00    -0.004 A 
ENDBRANCH   1   8
BRANCH   1  14
ATOM     14  C   UNL     1      -0.125   5.706  -2.617  0.00  0.00    +0.322 C 
ATOM     15  O   UNL     1      -1.091   4.940  -2.343  0.00  0.00    -0.250 OA
BRANCH  14  17
ATOM     16  C   UNL     1      -0.081   6.412  -0.535  0.00  0.00    +0.256 C 
ATOM     17  O   UNL     1       0.400   6.443  -1.610  0.00  0.00    -0.444 OA
ENDBRANCH  14  17
ENDBRANCH   1  14
TORSDOF 4
ENDMDL
MODEL 7
REMARK VINA RESULT:      -6.5      4.501      5.875
REMARK  Name = 
REMARK  4 active torsions:
REMARK  status: ('A' for Active; 'I' for Inactive)
REMARK    1  A    between atoms: O_2  and  C_3
REMARK    2  A    between atoms: C_3  and  C_5
REMARK    3  A    between atoms: C_5  and  C_6
REMARK    4  A    between atoms: C_5  and  C_12
REMARK                            x       y       z     vdW  Elec       q    Type
REMARK                         _______ _______ _______ _____ _____    ______ ____
ROOT
ATOM      1  C   UNL     1       1.424   5.313  -5.294  0.00  0.00    +0.137 C 
ENDROOT
BRANCH   1   2
ATOM      2  C   UNL     1       0.414   6.161  -6.383  0.00  0.00    +0.087 C 
ATOM      3  N   UNL     1      -0.649   5.015  -6.382  0.00  0.00    -0.219 NA
ATOM      4  C   UNL     1      -1.953   5.673  -6.461  0.00  0.00    +0.089 C 
ATOM      5  C   UNL     1      -2.419   6.009  -5.044  0.00  0.00    +0.019 C 
ATOM      6  C   UNL     1      -1.085   6.149  -4.306  0.00  0.00    +0.003 C 
ATOM      7  C   UNL     1      -0.309   7.020  -5.215  0.00  0.00    +0.018 C 
ENDBRANCH   1   2
BRANCH   1   8
ATOM      8  C   UNL     1       2.580   6.425  -5.266  0.00  0.00    -0.011 A 
ATOM      9  C   UNL     1       2.630   7.191  -4.105  0.00  0.00    -0.004 A 
ATOM     10  C   UNL     1       3.711   7.302  -3.285  0.00  0.00    -0.000 A 
ATOM     11  C   UNL     1       4.937   7.173  -3.890  0.00  0.00    -0.000 A 
ATOM     12  C   UNL     1       5.005   6.434  -5.046  0.00  0.00    -0.000 A 
ATOM     13  C   UNL     1       3.848   5.960  -5.608  0.00  0.00    -0.004 A 
ENDBRANCH   1   8
BRANCH   1  14
ATOM     14  C   UNL     1       2.098   4.465  -6.461  0.00  0.00    +0.322 C 
ATOM     15  O   UNL     1       2.077   3.216  -6.274  0.00  0.00    -0.250 OA
BRANCH  14  17
ATOM     16  C   UNL     1       2.505   4.183  -8.604  0.00  0.00    +0.256 C 
ATOM     17  O   UNL     1       2.176   4.910  -7.737  0.00  0.00    -0.444 OA
ENDBRANCH  14  17
ENDBRANCH   1  14
TORSDOF 4
ENDMDL
MODEL 8
REMARK VINA RESULT:      -6.4      2.292      3.514
REMARK  Name = 
REMARK  4 active torsions:
REMARK  status: ('A' for Active; 'I' for Inactive)
REMARK    1  A    between atoms: O_2  and  C_3
REMARK    2  A    between atoms: C_3  and  C_5
REMARK    3  A    between atoms: C_5  and  C_6
REMARK    4  A    between atoms: C_5  and  C_12
REMARK                            x       y       z     vdW  Elec       q    Type
REMARK                         _______ _______ _______ _____ _____    ______ ____
ROOT
ATOM      1  C   UNL     1       3.208   6.573  -9.439  0.00  0.00    +0.137 C 
ENDROOT
BRANCH   1   2
ATOM      2  C   UNL     1       2.294   5.167  -9.769  0.00  0.00    +0.087 C 
ATOM      3  N   UNL     1       0.987   5.811  -9.204  0.00  0.00    -0.219 NA
ATOM      4  C   UNL     1      -0.102   5.323 -10.050  0.00  0.00    +0.089 C 
ATOM      5  C   UNL     1      -0.246   6.258 -11.251  0.00  0.00    +0.019 C 
ATOM      6  C   UNL     1       1.176   6.810 -11.384  0.00  0.00    +0.003 C 
ATOM      7  C   UNL     1       2.000   5.585 -11.306  0.00  0.00    +0.018 C 
ENDBRANCH   1   2
BRANCH   1   8
ATOM      8  C   UNL     1       4.582   6.003 -10.038  0.00  0.00    -0.011 A 
ATOM      9  C   UNL     1       5.167   6.795 -11.022  0.00  0.00    -0.004 A 
ATOM     10  C   UNL     1       6.424   7.315 -10.966  0.00  0.00    -0.000 A 
ATOM     11  C   UNL     1       7.343   6.583 -10.256  0.00  0.00    -0.000 A 
ATOM     12  C   UNL     1       6.876   5.766  -9.257  0.00  0.00    -0.000 A 
ATOM     13  C   UNL     1       5.524   5.622  -9.084  0.00  0.00    -0.004 A 
ENDBRANCH   1   8
BRANCH   1  14
ATOM     14  C   UNL     1       3.523   6.110  -7.948  0.00  0.00    +0.322 C 
ATOM     15  O   UNL     1       3.443   7.033  -7.090  0.00  0.00    -0.250 OA
BRANCH  14  17
ATOM     16  C   UNL     1       3.020   4.620  -6.411  0.00  0.00    +0.256 C 
ATOM     17  O   UNL     1       3.341   4.838  -7.524  0.00  0.00    -0.444 OA
ENDBRANCH  14  17
ENDBRANCH   1  14
TORSDOF 4
ENDMDL
MODEL 9
REMARK VINA RESULT:      -6.4      3.717      6.680
REMARK  Name = 
REMARK  4 active torsions:
REMARK  status: ('A' for Active; 'I' for Inactive)
REMARK    1  A    between atoms: O_2  and  C_3
REMARK    2  A    between atoms: C_3  and  C_5
REMARK    3  A    between atoms: C_5  and  C_6
REMARK    4  A    between atoms: C_5  and  C_12
REMARK                            x       y       z     vdW  Elec       q    Type
REMARK                         _______ _______ _______ _____ _____    ______ ____
ROOT
ATOM      1  C   UNL     1       0.677   4.803  -7.735  0.00  0.00    +0.137 C 
ENDROOT
BRANCH   1   2
ATOM      2  C   UNL     1       1.401   6.064  -8.634  0.00  0.00    +0.087 C 
ATOM      3  N   UNL     1       2.221   5.055  -9.502  0.00  0.00    -0.219 NA
ATOM      4  C   UNL     1       2.265   5.625 -10.849  0.00  0.00    +0.089 C 
ATOM      5  C   UNL     1       1.025   5.166 -11.616  0.00  0.00    +0.019 C 
ATOM      6  C   UNL     1       0.025   4.940 -10.478  0.00  0.00    +0.003 C 
ATOM      7  C   UNL     1       0.168   6.175  -9.680  0.00  0.00    +0.018 C 
ENDBRANCH   1   2
BRANCH   1   8
ATOM      8  C   UNL     1      -0.191   5.770  -6.794  0.00  0.00    -0.011 A 
ATOM      9  C   UNL     1      -1.565   5.724  -7.013  0.00  0.00    -0.004 A 
ATOM     10  C   UNL     1      -2.499   5.414  -6.072  0.00  0.00    -0.000 A 
ATOM     11  C   UNL     1      -2.177   5.742  -4.778  0.00  0.00    -0.000 A 
ATOM     12  C   UNL     1      -0.846   5.815  -4.449  0.00  0.00    -0.000 A 
ATOM     13  C   UNL     1       0.097   5.676  -5.434  0.00  0.00    -0.004 A 
ENDBRANCH   1   8
BRANCH   1  14
ATOM     14  C   UNL     1       1.904   4.717  -6.724  0.00  0.00    +0.322 C 
ATOM     15  O   UNL     1       2.265   3.539  -6.445  0.00  0.00    -0.250 OA
BRANCH  14  17
ATOM     16  C   UNL     1       3.830   5.513  -6.023  0.00  0.00    +0.256 C 
ATOM     17  O   UNL     1       2.824   5.703  -6.605  0.00  0.00    -0.444 OA
ENDBRANCH  14  17
ENDBRANCH   1  14
TORSDOF 4
ENDMDL
