MODEL 1
REMARK VINA RESULT:      -8.0      0.000      0.000
REMARK  Name = 
REMARK  4 active torsions:
REMARK  status: ('A' for Active; 'I' for Inactive)
REMARK    1  A    between atoms: S_2  and  C_3
REMARK    2  A    between atoms: N_9  and  C_10
REMARK    3  A    between atoms: C_10  and  C_11
REMARK    4  A    between atoms: C_11  and  C_12
REMARK                            x       y       z     vdW  Elec       q    Type
REMARK                         _______ _______ _______ _____ _____    ______ ____
ROOT
ATOM      1  C   UNL     1      -0.652   6.009  -5.532  0.00  0.00    +0.027 A 
ATOM      2  C   UNL     1       0.731   6.148  -5.509  0.00  0.00    +0.021 A 
ATOM      3  C   UNL     1       1.491   6.119  -6.675  0.00  0.00    +0.058 A 
ATOM      4  N   UNL     1       2.923   6.113  -6.623  0.00  0.00    -0.286 N 
ATOM      5  C   UNL     1       3.669   5.844  -7.813  0.00  0.00    +0.058 A 
ATOM      6  C   UNL     1       3.315   6.543  -8.961  0.00  0.00    +0.043 A 
ATOM      7  S   UNL     1       1.556   6.682  -9.309  0.00  0.00    -0.084 S 
ATOM      8  C   UNL     1       4.238   6.798  -9.930  0.00  0.00    +0.008 A 
ATOM      9  C   UNL     1       5.502   6.241  -9.781  0.00  0.00    +0.001 A 
ATOM     10  C   UNL     1       5.765   5.375  -8.754  0.00  0.00    +0.001 A 
ATOM     11  C   UNL     1       4.761   5.010  -7.864  0.00  0.00    +0.015 A 
ATOM     12  C   UNL     1       0.789   5.938  -7.862  0.00  0.00    +0.043 A 
ATOM     13  C   UNL     1      -0.504   5.439  -7.890  0.00  0.00    +0.008 A 
ATOM     14  C   UNL     1      -1.129   5.339  -6.653  0.00  0.00    +0.007 A 
ENDROOT
BRANCH   1  16
ATOM     15  C   UNL     1      -2.241   7.252  -3.903  0.00  0.00    +0.074 C 
ATOM     16  S   UNL     1      -1.727   6.769  -4.343  0.00  0.00    -0.113 S 
ENDBRANCH   1  16
BRANCH   4  17
ATOM     17  C   UNL     1       3.498   5.715  -5.340  0.00  0.00    +0.097 C 
BRANCH  17  18
ATOM     18  C   UNL     1       4.153   6.831  -4.680  0.00  0.00    +0.038 C 
BRANCH  18  19
ATOM     19  C   UNL     1       4.635   6.412  -3.152  0.00  0.00    +0.059 C 
ATOM     20  N   UNL     1       3.385   7.147  -2.496  0.00  0.00    -0.273 NA
ATOM     21  C   UNL     1       3.860   8.530  -2.547  0.00  0.00    +0.090 C 
ATOM     22  C   UNL     1       3.433   6.789  -1.097  0.00  0.00    +0.072 C 
ATOM     23  C   UNL     1       4.181   5.547  -0.790  0.00  0.00    +0.017 C 
ATOM     24  C   UNL     1       4.007   4.421  -1.746  0.00  0.00    +0.003 C 
ATOM     25  C   UNL     1       3.855   4.948  -3.131  0.00  0.00    +0.016 C 
ENDBRANCH  18  19
ENDBRANCH  17  18
ENDBRANCH   4  17
TORSDOF 4
ENDMDL
MODEL 2
REMARK VINA RESULT:      -7.8      3.356      6.870
REMARK  Name = 
REMARK  4 active torsions:
REMARK  status: ('A' for Active; 'I' for Inactive)
REMARK    1  A    between atoms: S_2  and  C_3
REMARK    2  A    between atoms: N_9  and  C_10
REMARK    3  A    between atoms: C_10  and  C_11
REMARK    4  A    between atoms: C_11  and  C_12
REMARK                            x       y       z     vdW  Elec       q    Type
REMARK                         _______ _______ _______ _____ _____    ______ ____
ROOT
ATOM      1  C   UNL     1       2.409   6.048  -7.399  0.00  0.00    +0.027 A 
ATOM      2  C   UNL     1       3.011   6.322  -8.621  0.00  0.00    +0.021 A 
ATOM      3  C   UNL     1       2.283   6.365  -9.806  0.00  0.00    +0.058 A 
ATOM      4  N   UNL     1       2.940   6.501 -11.073  0.00  0.00    -0.286 N 
ATOM      5  C   UNL     1       2.194   6.303 -12.276  0.00  0.00    +0.058 A 
ATOM      6  C   UNL     1       0.974   6.960 -12.387  0.00  0.00    +0.043 A 
ATOM      7  S   UNL     1      -0.095   6.924 -10.942  0.00  0.00    -0.084 S 
ATOM      8  C   UNL     1       0.480   7.302 -13.610  0.00  0.00    +0.008 A 
ATOM      9  C   UNL     1       1.178   6.874 -14.733  0.00  0.00    +0.001 A 
ATOM     10  C   UNL     1       2.257   6.042 -14.605  0.00  0.00    +0.001 A 
ATOM     11  C   UNL     1       2.651   5.581 -13.354  0.00  0.00    +0.015 A 
ATOM     12  C   UNL     1       0.920   6.112  -9.698  0.00  0.00    +0.043 A 
ATOM     13  C   UNL     1       0.366   5.487  -8.592  0.00  0.00    +0.008 A 
ATOM     14  C   UNL     1       1.223   5.330  -7.508  0.00  0.00    +0.007 A 
ENDROOT
BRANCH   1  16
ATOM     15  C   UNL     1       3.408   7.043  -5.223  0.00  0.00    +0.074 C 
ATOM     16  S   UNL     1       2.991   6.701  -5.856  0.00  0.00    -0.113 S 
ENDBRANCH   1  16
BRANCH   4  17
ATOM     17  C   UNL     1       4.362   6.166 -11.075  0.00  0.00    +0.097 C 
BRANCH  17  18
ATOM     18  C   UNL     1       5.184   7.329 -10.788  0.00  0.00    +0.038 C 
BRANCH  18  19
ATOM     19  C   UNL     1       6.679   7.181 -11.486  0.00  0.00    +0.059 C 
ATOM     20  N   UNL     1       6.869   5.714 -10.896  0.00  0.00    -0.273 NA
ATOM     21  C   UNL     1       7.256   6.051  -9.525  0.00  0.00    +0.090 C 
ATOM     22  C   UNL     1       8.079   5.219 -11.512  0.00  0.00    +0.072 C 
ATOM     23  C   UNL     1       8.454   5.878 -12.785  0.00  0.00    +0.017 C 
ATOM     24  C   UNL     1       7.336   6.204 -13.711  0.00  0.00    +0.003 C 
ATOM     25  C   UNL     1       6.124   6.585 -12.932  0.00  0.00    +0.016 C 
ENDBRANCH  18  19
ENDBRANCH  17  18
ENDBRANCH   4  17
TORSDOF 4
ENDMDL
MODEL 3
REMARK VINA RESULT:      -7.7      2.192      6.177
REMARK  Name = 
REMARK  4 active torsions:
REMARK  status: ('A' for Active; 'I' for Inactive)
REMARK    1  A    between atoms: S_2  and  C_3
REMARK    2  A    between atoms: N_9  and  C_10
REMARK    3  A    between atoms: C_10  and  C_11
REMARK    4  A    between atoms: C_11  and  C_12
REMARK                            x       y       z     vdW  Elec       q    Type
REMARK                         _______ _______ _______ _____ _____    ______ ____
ROOT
ATOM      1  C   UNL     1       2.675   5.901  -7.865  0.00  0.00    +0.027 A 
ATOM      2  C   UNL     1       1.955   6.287  -6.741  0.00  0.00    +0.021 A 
ATOM      3  C   UNL     1       2.581   6.577  -5.532  0.00  0.00    +0.058 A 
ATOM      4  N   UNL     1       1.816   6.828  -4.346  0.00  0.00    -0.286 N 
ATOM      5  C   UNL     1       2.479   6.885  -3.080  0.00  0.00    +0.058 A 
ATOM      6  C   UNL     1       3.620   7.673  -2.993  0.00  0.00    +0.043 A 
ATOM      7  S   UNL     1       4.800   7.536  -4.344  0.00  0.00    -0.084 S 
ATOM      8  C   UNL     1       3.983   8.239  -1.808  0.00  0.00    +0.008 A 
ATOM      9  C   UNL     1       3.241   7.910  -0.680  0.00  0.00    +0.001 A 
ATOM     10  C   UNL     1       2.256   6.961  -0.748  0.00  0.00    +0.001 A 
ATOM     11  C   UNL     1       2.007   6.285  -1.937  0.00  0.00    +0.015 A 
ATOM     12  C   UNL     1       3.965   6.452  -5.511  0.00  0.00    +0.043 A 
ATOM     13  C   UNL     1       4.660   5.733  -6.471  0.00  0.00    +0.008 A 
ATOM     14  C   UNL     1       3.910   5.332  -7.571  0.00  0.00    +0.007 A 
ENDROOT
BRANCH   1  16
ATOM     15  C   UNL     1       1.818   6.285 -10.282  0.00  0.00    +0.074 C 
ATOM     16  S   UNL     1       2.159   6.258  -9.524  0.00  0.00    -0.113 S 
ENDBRANCH   1  16
BRANCH   4  17
ATOM     17  C   UNL     1       0.435   6.352  -4.384  0.00  0.00    +0.097 C 
BRANCH  17  18
ATOM     18  C   UNL     1      -0.456   7.346  -4.958  0.00  0.00    +0.038 C 
BRANCH  18  19
ATOM     19  C   UNL     1      -1.961   7.254  -4.275  0.00  0.00    +0.059 C 
ATOM     20  N   UNL     1      -2.017   5.676  -4.478  0.00  0.00    -0.273 NA
ATOM     21  C   UNL     1      -2.374   5.625  -5.896  0.00  0.00    +0.090 C 
ATOM     22  C   UNL     1      -3.210   5.252  -3.780  0.00  0.00    +0.072 C 
ATOM     23  C   UNL     1      -3.683   6.176  -2.722  0.00  0.00    +0.017 C 
ATOM     24  C   UNL     1      -2.631   6.815  -1.888  0.00  0.00    +0.003 C 
ATOM     25  C   UNL     1      -1.422   7.089  -2.715  0.00  0.00    +0.016 C 
ENDBRANCH  18  19
ENDBRANCH  17  18
ENDBRANCH   4  17
TORSDOF 4
ENDMDL
MODEL 4
REMARK VINA RESULT:      -7.7      2.205      6.305
REMARK  Name = 
REMARK  4 active torsions:
REMARK  status: ('A' for Active; 'I' for Inactive)
REMARK    1  A    between atoms: S_2  and  C_3
REMARK    2  A    between atoms: N_9  and  C_10
REMARK    3  A    between atoms: C_10  and  C_11
REMARK    4  A    between atoms: C_11  and  C_12
REMARK                            x       y       z     vdW  Elec       q    Type
REMARK                         _______ _______ _______ _____ _____    ______ ____
ROOT
ATOM      1  C   UNL     1       2.980   5.723  -1.345  0.00  0.00    +0.027 A 
ATOM      2  C   UNL     1       2.741   5.893  -2.703  0.00  0.00    +0.021 A 
ATOM      3  C   UNL     1       1.455   5.847  -3.233  0.00  0.00    +0.058 A 
ATOM      4  N   UNL     1       1.238   5.874  -4.650  0.00  0.00    -0.286 N 
ATOM      5  C   UNL     1      -0.063   5.587  -5.169  0.00  0.00    +0.058 A 
ATOM      6  C   UNL     1      -1.141   6.244  -4.588  0.00  0.00    +0.043 A 
ATOM      7  S   UNL     1      -1.158   6.333  -2.791  0.00  0.00    -0.084 S 
ATOM      8  C   UNL     1      -2.272   6.491  -5.307  0.00  0.00    +0.008 A 
ATOM      9  C   UNL     1      -2.348   5.968  -6.592  0.00  0.00    +0.001 A 
ATOM     10  C   UNL     1      -1.366   5.139  -7.065  0.00  0.00    +0.001 A 
ATOM     11  C   UNL     1      -0.296   4.777  -6.255  0.00  0.00    +0.015 A 
ATOM     12  C   UNL     1       0.425   5.615  -2.328  0.00  0.00    +0.043 A 
ATOM     13  C   UNL     1       0.650   5.086  -1.067  0.00  0.00    +0.008 A 
ATOM     14  C   UNL     1       1.985   5.009  -0.686  0.00  0.00    +0.007 A 
ENDROOT
BRANCH   1  16
ATOM     15  C   UNL     1       4.871   6.813   0.055  0.00  0.00    +0.074 C 
ATOM     16  S   UNL     1       4.329   6.492  -0.489  0.00  0.00    -0.113 S 
ENDBRANCH   1  16
BRANCH   4  17
ATOM     17  C   UNL     1       2.401   5.528  -5.464  0.00  0.00    +0.097 C 
BRANCH  17  18
ATOM     18  C   UNL     1       2.516   6.392  -6.626  0.00  0.00    +0.038 C 
BRANCH  18  19
ATOM     19  C   UNL     1       3.098   5.553  -7.930  0.00  0.00    +0.059 C 
ATOM     20  N   UNL     1       3.100   6.860  -8.839  0.00  0.00    -0.273 NA
ATOM     21  C   UNL     1       1.678   6.921  -9.183  0.00  0.00    +0.090 C 
ATOM     22  C   UNL     1       3.761   6.464 -10.061  0.00  0.00    +0.072 C 
ATOM     23  C   UNL     1       4.652   5.286  -9.942  0.00  0.00    +0.017 C 
ATOM     24  C   UNL     1       5.468   5.202  -8.701  0.00  0.00    +0.003 C 
ATOM     25  C   UNL     1       4.700   5.751  -7.548  0.00  0.00    +0.016 C 
ENDBRANCH  18  19
ENDBRANCH  17  18
ENDBRANCH   4  17
TORSDOF 4
ENDMDL
MODEL 5
REMARK VINA RESULT:      -7.5      1.550      5.107
REMARK  Name = 
REMARK  4 active torsions:
REMARK  status: ('A' for Active; 'I' for Inactive)
REMARK    1  A    between atoms: S_2  and  C_3
REMARK    2  A    between atoms: N_9  and  C_10
REMARK    3  A    between atoms: C_10  and  C_11
REMARK    4  A    between atoms: C_11  and  C_12
REMARK                            x       y       z     vdW  Elec       q    Type
REMARK                         _______ _______ _______ _____ _____    ______ ____
ROOT
ATOM      1  C   UNL     1       3.920   6.200  -8.342  0.00  0.00    +0.027 A 
ATOM      2  C   UNL     1       3.334   6.150  -7.083  0.00  0.00    +0.021 A 
ATOM      3  C   UNL     1       1.952   6.162  -6.916  0.00  0.00    +0.058 A 
ATOM      4  N   UNL     1       1.367   6.261  -5.610  0.00  0.00    -0.286 N 
ATOM      5  C   UNL     1      -0.035   6.511  -5.485  0.00  0.00    +0.058 A 
ATOM      6  C   UNL     1      -0.894   5.730  -6.249  0.00  0.00    +0.043 A 
ATOM      7  S   UNL     1      -0.428   5.463  -7.965  0.00  0.00    -0.084 S 
ATOM      8  C   UNL     1      -2.165   5.481  -5.826  0.00  0.00    +0.008 A 
ATOM      9  C   UNL     1      -2.600   6.122  -4.673  0.00  0.00    +0.001 A 
ATOM     10  C   UNL     1      -1.812   7.057  -4.057  0.00  0.00    +0.001 A 
ATOM     11  C   UNL     1      -0.579   7.407  -4.596  0.00  0.00    +0.015 A 
ATOM     12  C   UNL     1       1.193   6.235  -8.078  0.00  0.00    +0.043 A 
ATOM     13  C   UNL     1       1.726   6.650  -9.288  0.00  0.00    +0.008 A 
ATOM     14  C   UNL     1       3.110   6.778  -9.314  0.00  0.00    +0.007 A 
ENDROOT
BRANCH   1  16
ATOM     15  C   UNL     1       6.256   5.247  -8.938  0.00  0.00    +0.074 C 
ATOM     16  S   UNL     1       5.476   5.441  -8.724  0.00  0.00    -0.113 S 
ENDBRANCH   1  16
BRANCH   4  17
ATOM     17  C   UNL     1       2.257   6.763  -4.566  0.00  0.00    +0.097 C 
BRANCH  17  18
ATOM     18  C   UNL     1       2.416   5.798  -3.491  0.00  0.00    +0.038 C 
BRANCH  18  19
ATOM     19  C   UNL     1       2.567   6.562  -2.030  0.00  0.00    +0.059 C 
ATOM     20  N   UNL     1       3.894   5.754  -1.682  0.00  0.00    -0.273 NA
ATOM     21  C   UNL     1       3.303   4.486  -1.252  0.00  0.00    +0.090 C 
ATOM     22  C   UNL     1       4.394   6.361  -0.470  0.00  0.00    +0.072 C 
ATOM     23  C   UNL     1       3.933   7.748  -0.223  0.00  0.00    +0.017 C 
ATOM     24  C   UNL     1       3.853   8.636  -1.413  0.00  0.00    +0.003 C 
ATOM     25  C   UNL     1       3.438   7.850  -2.609  0.00  0.00    +0.016 C 
ENDBRANCH  18  19
ENDBRANCH  17  18
ENDBRANCH   4  17
TORSDOF 4
ENDMDL
MODEL 6
REMARK VINA RESULT:      -7.5      3.338      8.174
REMARK  Name = 
REMARK  4 active torsions:
REMARK  status: ('A' for Active; 'I' for Inactive)
REMARK    1  A    between atoms: S_2  and  C_3
REMARK    2  A    between atoms: N_9  and  C_10
REMARK    3  A    between atoms: C_10  and  C_11
REMARK    4  A    between atoms: C_11  and  C_12
REMARK                            x       y       z     vdW  Elec       q    Type
REMARK                         _______ _______ _______ _____ _____    ______ ____
ROOT
ATOM      1  C   UNL     1       4.889   5.824  -9.695  0.00  0.00    +0.027 A 
ATOM      2  C   UNL     1       3.507   5.960  -9.760  0.00  0.00    +0.021 A 
ATOM      3  C   UNL     1       2.723   6.037  -8.613  0.00  0.00    +0.058 A 
ATOM      4  N   UNL     1       1.291   6.027  -8.695  0.00  0.00    -0.286 N 
ATOM      5  C   UNL     1       0.520   5.866  -7.501  0.00  0.00    +0.058 A 
ATOM      6  C   UNL     1       0.851   6.666  -6.414  0.00  0.00    +0.043 A 
ATOM      7  S   UNL     1       2.603   6.834  -6.043  0.00  0.00    -0.084 S 
ATOM      8  C   UNL     1      -0.091   7.007  -5.492  0.00  0.00    +0.008 A 
ATOM      9  C   UNL     1      -1.354   6.441  -5.617  0.00  0.00    +0.001 A 
ATOM     10  C   UNL     1      -1.596   5.486  -6.568  0.00  0.00    +0.001 A 
ATOM     11  C   UNL     1      -0.575   5.041  -7.400  0.00  0.00    +0.015 A 
ATOM     12  C   UNL     1       3.399   5.963  -7.400  0.00  0.00    +0.043 A 
ATOM     13  C   UNL     1       4.689   5.468  -7.299  0.00  0.00    +0.008 A 
ATOM     14  C   UNL     1       5.340   5.257  -8.509  0.00  0.00    +0.007 A 
ENDROOT
BRANCH   1  16
ATOM     15  C   UNL     1       6.425   6.667 -11.606  0.00  0.00    +0.074 C 
ATOM     16  S   UNL     1       5.991   6.472 -10.924  0.00  0.00    -0.113 S 
ENDBRANCH   1  16
BRANCH   4  17
ATOM     17  C   UNL     1       0.744   5.516  -9.949  0.00  0.00    +0.097 C 
BRANCH  17  18
ATOM     18  C   UNL     1       0.129   6.573 -10.733  0.00  0.00    +0.038 C 
BRANCH  18  19
ATOM     19  C   UNL     1      -0.195   6.055 -12.272  0.00  0.00    +0.059 C 
ATOM     20  N   UNL     1       1.068   6.827 -12.857  0.00  0.00    -0.273 NA
ATOM     21  C   UNL     1       0.519   8.182 -12.919  0.00  0.00    +0.090 C 
ATOM     22  C   UNL     1       1.161   6.400 -14.234  0.00  0.00    +0.072 C 
ATOM     23  C   UNL     1       0.509   5.104 -14.538  0.00  0.00    +0.017 C 
ATOM     24  C   UNL     1       0.658   4.037 -13.513  0.00  0.00    +0.003 C 
ATOM     25  C   UNL     1       0.659   4.638 -12.149  0.00  0.00    +0.016 C 
ENDBRANCH  18  19
ENDBRANCH  17  18
ENDBRANCH   4  17
TORSDOF 4
ENDMDL
MODEL 7
REMARK VINA RESULT:      -7.4      2.247      5.613
REMARK  Name = 
REMARK  4 active torsions:
REMARK  status: ('A' for Active; 'I' for Inactive)
REMARK    1  A    between atoms: S_2  and  C_3
REMARK    2  A    between atoms: N_9  and  C_10
REMARK    3  A    between atoms: C_10  and  C_11
REMARK    4  A    between atoms: C_11  and  C_12
REMARK                            x       y       z     vdW  Elec       q    Type
REMARK                         _______ _______ _______ _____ _____    ______ ____
ROOT
ATOM      1  C   UNL     1       1.334   4.873  -8.615  0.00  0.00    +0.027 A 
ATOM      2  C   UNL     1       1.014   5.548  -7.443  0.00  0.00    +0.021 A 
ATOM      3  C   UNL     1       1.985   5.901  -6.511  0.00  0.00    +0.058 A 
ATOM      4  N   UNL     1       1.622   6.461  -5.242  0.00  0.00    -0.286 N 
ATOM      5  C   UNL     1       2.615   6.591  -4.221  0.00  0.00    +0.058 A 
ATOM      6  C   UNL     1       3.828   7.166  -4.578  0.00  0.00    +0.043 A 
ATOM      7  S   UNL     1       4.554   6.617  -6.130  0.00  0.00    -0.084 S 
ATOM      8  C   UNL     1       4.579   7.830  -3.656  0.00  0.00    +0.008 A 
ATOM      9  C   UNL     1       4.145   7.814  -2.335  0.00  0.00    +0.001 A 
ATOM     10  C   UNL     1       3.064   7.057  -1.968  0.00  0.00    +0.001 A 
ATOM     11  C   UNL     1       2.406   6.265  -2.901  0.00  0.00    +0.015 A 
ATOM     12  C   UNL     1       3.291   5.535  -6.816  0.00  0.00    +0.043 A 
ATOM     13  C   UNL     1       3.589   4.566  -7.761  0.00  0.00    +0.008 A 
ATOM     14  C   UNL     1       2.516   4.144  -8.537  0.00  0.00    +0.007 A 
ENDROOT
BRANCH   1  16
ATOM     15  C   UNL     1       0.086   5.007 -10.884  0.00  0.00    +0.074 C 
ATOM     16  S   UNL     1       0.427   5.062 -10.127  0.00  0.00    -0.113 S 
ENDBRANCH   1  16
BRANCH   4  17
ATOM     17  C   UNL     1       0.236   6.241  -4.838  0.00  0.00    +0.097 C 
BRANCH  17  18
ATOM     18  C   UNL     1      -0.586   7.413  -5.087  0.00  0.00    +0.038 C 
BRANCH  18  19
ATOM     19  C   UNL     1      -2.047   7.283  -4.320  0.00  0.00    +0.059 C 
ATOM     20  N   UNL     1      -2.104   5.713  -4.577  0.00  0.00    -0.273 NA
ATOM     21  C   UNL     1      -2.543   5.710  -5.973  0.00  0.00    +0.090 C 
ATOM     22  C   UNL     1      -3.250   5.253  -3.826  0.00  0.00    +0.072 C 
ATOM     23  C   UNL     1      -3.667   6.133  -2.710  0.00  0.00    +0.017 C 
ATOM     24  C   UNL     1      -2.571   6.751  -1.915  0.00  0.00    +0.003 C 
ATOM     25  C   UNL     1      -1.415   7.065  -2.801  0.00  0.00    +0.016 C 
ENDBRANCH  18  19
ENDBRANCH  17  18
ENDBRANCH   4  17
TORSDOF 4
ENDMDL
MODEL 8
REMARK VINA RESULT:      -7.4      2.435      5.265
REMARK  Name = 
REMARK  4 active torsions:
REMARK  status: ('A' for Active; 'I' for Inactive)
REMARK    1  A    between atoms: S_2  and  C_3
REMARK    2  A    between atoms: N_9  and  C_10
REMARK    3  A    between atoms: C_10  and  C_11
REMARK    4  A    between atoms: C_11  and  C_12
REMARK                            x       y       z     vdW  Elec       q    Type
REMARK                         _______ _______ _______ _____ _____    ______ ____
ROOT
ATOM      1  C   UNL     1       3.921   6.893  -2.495  0.00  0.00    +0.027 A 
ATOM      2  C   UNL     1       2.931   6.223  -3.203  0.00  0.00    +0.021 A 
ATOM      3  C   UNL     1       3.011   6.038  -4.580  0.00  0.00    +0.058 A 
ATOM      4  N   UNL     1       1.915   5.479  -5.316  0.00  0.00    -0.286 N 
ATOM      5  C   UNL     1       1.932   5.522  -6.745  0.00  0.00    +0.058 A 
ATOM      6  C   UNL     1       3.094   5.106  -7.383  0.00  0.00    +0.043 A 
ATOM      7  S   UNL     1       4.647   5.693  -6.692  0.00  0.00    -0.084 S 
ATOM      8  C   UNL     1       3.045   4.583  -8.640  0.00  0.00    +0.008 A 
ATOM      9  C   UNL     1       1.819   4.586  -9.295  0.00  0.00    +0.001 A 
ATOM     10  C   UNL     1       0.733   5.201  -8.734  0.00  0.00    +0.001 A 
ATOM     11  C   UNL     1       0.846   5.863  -7.516  0.00  0.00    +0.015 A 
ATOM     12  C   UNL     1       4.133   6.568  -5.207  0.00  0.00    +0.043 A 
ATOM     13  C   UNL     1       4.929   7.534  -4.612  0.00  0.00    +0.008 A 
ATOM     14  C   UNL     1       4.662   7.778  -3.269  0.00  0.00    +0.007 A 
ENDROOT
BRANCH   1  16
ATOM     15  C   UNL     1       4.587   6.517  -0.017  0.00  0.00    +0.074 C 
ATOM     16  S   UNL     1       4.328   6.529  -0.807  0.00  0.00    -0.113 S 
ENDBRANCH   1  16
BRANCH   4  17
ATOM     17  C   UNL     1       0.622   5.523  -4.636  0.00  0.00    +0.097 C 
BRANCH  17  18
ATOM     18  C   UNL     1       0.005   6.834  -4.747  0.00  0.00    +0.038 C 
BRANCH  18  19
ATOM     19  C   UNL     1      -1.362   6.923  -3.818  0.00  0.00    +0.059 C 
ATOM     20  N   UNL     1      -2.003   5.658  -4.542  0.00  0.00    -0.273 NA
ATOM     21  C   UNL     1      -2.482   6.296  -5.769  0.00  0.00    +0.090 C 
ATOM     22  C   UNL     1      -3.198   5.362  -3.786  0.00  0.00    +0.072 C 
ATOM     23  C   UNL     1      -3.207   5.872  -2.394  0.00  0.00    +0.017 C 
ATOM     24  C   UNL     1      -1.923   5.773  -1.650  0.00  0.00    +0.003 C 
ATOM     25  C   UNL     1      -0.778   5.987  -2.579  0.00  0.00    +0.016 C 
ENDBRANCH  18  19
ENDBRANCH  17  18
ENDBRANCH   4  17
TORSDOF 4
ENDMDL
MODEL 9
REMARK VINA RESULT:      -7.4      3.631      7.162
REMARK  Name = 
REMARK  4 active torsions:
REMARK  status: ('A' for Active; 'I' for Inactive)
REMARK    1  A    between atoms: S_2  and  C_3
REMARK    2  A    between atoms: N_9  and  C_10
REMARK    3  A    between atoms: C_10  and  C_11
REMARK    4  A    between atoms: C_11  and  C_12
REMARK                            x       y       z     vdW  Elec       q    Type
REMARK                         _______ _______ _______ _____ _____    ______ ____
ROOT
ATOM      1  C   UNL     1       6.956   6.458 -12.710  0.00  0.00    +0.027 A 
ATOM      2  C   UNL     1       5.969   6.323 -11.740  0.00  0.00    +0.021 A 
ATOM      3  C   UNL     1       4.637   6.101 -12.075  0.00  0.00    +0.058 A 
ATOM      4  N   UNL     1       3.611   6.112 -11.073  0.00  0.00    -0.286 N 
ATOM      5  C   UNL     1       2.238   6.120 -11.472  0.00  0.00    +0.058 A 
ATOM      6  C   UNL     1       1.847   5.195 -12.432  0.00  0.00    +0.043 A 
ATOM      7  S   UNL     1       2.938   4.992 -13.848  0.00  0.00    -0.084 S 
ATOM      8  C   UNL     1       0.564   4.737 -12.471  0.00  0.00    +0.008 A 
ATOM      9  C   UNL     1      -0.353   5.308 -11.597  0.00  0.00    +0.001 A 
ATOM     10  C   UNL     1       0.003   6.371 -10.812  0.00  0.00    +0.001 A 
ATOM     11  C   UNL     1       1.277   6.921 -10.901  0.00  0.00    +0.015 A 
ATOM     12  C   UNL     1       4.348   6.029 -13.433  0.00  0.00    +0.043 A 
ATOM     13  C   UNL     1       5.212   6.515 -14.402  0.00  0.00    +0.008 A 
ATOM     14  C   UNL     1       6.474   6.878 -13.945  0.00  0.00    +0.007 A 
ENDROOT
BRANCH   1  16
ATOM     15  C   UNL     1       9.426   5.854 -12.206  0.00  0.00    +0.074 C 
ATOM     16  S   UNL     1       8.643   5.972 -12.458  0.00  0.00    -0.113 S 
ENDBRANCH   1  16
BRANCH   4  17
ATOM     17  C   UNL     1       3.973   6.771  -9.820  0.00  0.00    +0.097 C 
BRANCH  17  18
ATOM     18  C   UNL     1       4.195   5.807  -8.756  0.00  0.00    +0.038 C 
BRANCH  18  19
ATOM     19  C   UNL     1       2.944   5.827  -7.672  0.00  0.00    +0.059 C 
ATOM     20  N   UNL     1       3.030   4.251  -7.460  0.00  0.00    -0.273 NA
ATOM     21  C   UNL     1       2.324   3.805  -8.663  0.00  0.00    +0.090 C 
ATOM     22  C   UNL     1       2.122   3.971  -6.371  0.00  0.00    +0.072 C 
ATOM     23  C   UNL     1       1.833   5.119  -5.480  0.00  0.00    +0.017 C 
ATOM     24  C   UNL     1       2.981   6.009  -5.161  0.00  0.00    +0.003 C 
ATOM     25  C   UNL     1       3.889   6.111  -6.338  0.00  0.00    +0.016 C 
ENDBRANCH  18  19
ENDBRANCH  17  18
ENDBRANCH   4  17
TORSDOF 4
ENDMDL
