MODEL 1
REMARK VINA RESULT:      -8.8      0.000      0.000
REMARK  Name = 
REMARK  4 active torsions:
REMARK  status: ('A' for Active; 'I' for Inactive)
REMARK    1  A    between atoms: O_2  and  C_3
REMARK    2  A    between atoms: C_5  and  C_6
REMARK    3  A    between atoms: C_25  and  O_26
REMARK    4  A    between atoms: C_28  and  O_29
REMARK                            x       y       z     vdW  Elec       q    Type
REMARK                         _______ _______ _______ _____ _____    ______ ____
ROOT
ATOM      1  C   UNL     1       3.083   5.007  -6.998  0.00  0.00    +0.055 C 
ATOM      2  C   UNL     1       4.424   5.953  -6.404  0.00  0.00    +0.113 C 
ATOM      3  C   UNL     1       4.521   5.287  -4.826  0.00  0.00    +0.090 C 
ATOM      4  C   UNL     1       3.335   4.380  -5.234  0.00  0.00    +0.212 C 
ATOM      5  O   UNL     1       3.257   5.653  -5.499  0.00  0.00    -0.448 OA
ATOM      6  C   UNL     1       3.290   6.091  -3.875  0.00  0.00    +0.178 C 
ATOM      7  O   UNL     1       3.823   7.478  -4.197  0.00  0.00    -0.218 OA
ATOM      8  C   UNL     1       1.943   5.956  -4.777  0.00  0.00    +0.007 A 
ATOM      9  C   UNL     1       0.869   5.505  -4.027  0.00  0.00    +0.038 A 
ATOM     10  C   UNL     1      -0.321   5.576  -4.669  0.00  0.00    +0.176 A 
ATOM     11  O   UNL     1      -1.620   5.432  -4.267  0.00  0.00    -0.435 OA
ATOM     12  C   UNL     1      -2.481   5.986  -5.263  0.00  0.00    +0.429 C 
ATOM     13  O   UNL     1      -1.696   6.019  -6.432  0.00  0.00    -0.435 OA
ATOM     14  C   UNL     1      -0.397   5.964  -6.001  0.00  0.00    +0.176 A 
ATOM     15  C   UNL     1       0.683   5.721  -6.782  0.00  0.00    +0.036 A 
ATOM     16  C   UNL     1       3.328   6.861  -5.995  0.00  0.00    +0.317 C 
ATOM     17  O   UNL     1       2.909   7.731  -6.706  0.00  0.00    -0.250 OA
ATOM     18  C   UNL     1       1.852   5.678  -6.159  0.00  0.00    -0.016 A 
ENDROOT
BRANCH   1  23
ATOM     19  C   UNL     1       1.638   5.150 -10.269  0.00  0.00    +0.175 A 
ATOM     20  C   UNL     1       2.605   5.749 -11.063  0.00  0.00    +0.206 A 
ATOM     21  C   UNL     1       3.750   6.274 -10.478  0.00  0.00    +0.175 A 
ATOM     22  C   UNL     1       4.010   6.002  -9.146  0.00  0.00    +0.036 A 
ATOM     23  C   UNL     1       2.906   5.894  -8.309  0.00  0.00    -0.012 A 
ATOM     24  C   UNL     1       1.782   5.337  -8.927  0.00  0.00    +0.036 A 
BRANCH  19  26
ATOM     25  C   UNL     1      -0.420   4.475 -11.034  0.00  0.00    +0.253 C 
ATOM     26  O   UNL     1       0.840   4.134 -10.815  0.00  0.00    -0.468 OA
ENDBRANCH  19  26
BRANCH  20  27
ATOM     27  O   UNL     1       2.357   5.777 -12.415  0.00  0.00    -0.465 OA
ATOM     28  C   UNL     1       1.547   6.806 -12.960  0.00  0.00    +0.253 C 
ENDBRANCH  20  27
BRANCH  21  29
ATOM     29  O   UNL     1       4.775   6.588 -11.368  0.00  0.00    -0.468 OA
ATOM     30  C   UNL     1       5.663   7.606 -10.943  0.00  0.00    +0.253 C 
ENDBRANCH  21  29
ENDBRANCH   1  23
TORSDOF 4
ENDMDL
MODEL 2
REMARK VINA RESULT:      -8.4      1.564      6.911
REMARK  Name = 
REMARK  4 active torsions:
REMARK  status: ('A' for Active; 'I' for Inactive)
REMARK    1  A    between atoms: O_2  and  C_3
REMARK    2  A    between atoms: C_5  and  C_6
REMARK    3  A    between atoms: C_25  and  O_26
REMARK    4  A    between atoms: C_28  and  O_29
REMARK                            x       y       z     vdW  Elec       q    Type
REMARK                         _______ _______ _______ _____ _____    ______ ____
ROOT
ATOM      1  C   UNL     1       1.559   4.930  -8.429  0.00  0.00    +0.055 C 
ATOM      2  C   UNL     1       0.163   5.772  -9.053  0.00  0.00    +0.113 C 
ATOM      3  C   UNL     1       0.064   4.995 -10.580  0.00  0.00    +0.090 C 
ATOM      4  C   UNL     1       1.299   4.171 -10.140  0.00  0.00    +0.212 C 
ATOM      5  O   UNL     1       1.324   5.462  -9.964  0.00  0.00    -0.448 OA
ATOM      6  C   UNL     1       1.237   5.784 -11.613  0.00  0.00    +0.178 C 
ATOM      7  O   UNL     1       0.647   7.165 -11.373  0.00  0.00    -0.218 OA
ATOM      8  C   UNL     1       2.607   5.772 -10.737  0.00  0.00    +0.007 A 
ATOM      9  C   UNL     1       3.685   5.319 -11.479  0.00  0.00    +0.038 A 
ATOM     10  C   UNL     1       4.883   5.486 -10.873  0.00  0.00    +0.176 A 
ATOM     11  O   UNL     1       6.179   5.373 -11.295  0.00  0.00    -0.435 OA
ATOM     12  C   UNL     1       7.034   6.032 -10.360  0.00  0.00    +0.429 C 
ATOM     13  O   UNL     1       6.273   6.111  -9.177  0.00  0.00    -0.435 OA
ATOM     14  C   UNL     1       4.969   5.969  -9.572  0.00  0.00    +0.176 A 
ATOM     15  C   UNL     1       3.918   5.732  -8.751  0.00  0.00    +0.036 A 
ATOM     16  C   UNL     1       1.207   6.697  -9.550  0.00  0.00    +0.317 C 
ATOM     17  O   UNL     1       1.601   7.632  -8.910  0.00  0.00    -0.250 OA
ATOM     18  C   UNL     1       2.740   5.595  -9.341  0.00  0.00    -0.016 A 
ENDROOT
BRANCH   1  23
ATOM     19  C   UNL     1       2.956   5.311  -5.157  0.00  0.00    +0.175 A 
ATOM     20  C   UNL     1       1.982   5.974  -4.425  0.00  0.00    +0.206 A 
ATOM     21  C   UNL     1       0.849   6.459  -5.065  0.00  0.00    +0.175 A 
ATOM     22  C   UNL     1       0.607   6.089  -6.376  0.00  0.00    +0.036 A 
ATOM     23  C   UNL     1       1.722   5.912  -7.186  0.00  0.00    -0.012 A 
ATOM     24  C   UNL     1       2.833   5.397  -6.511  0.00  0.00    +0.036 A 
BRANCH  19  26
ATOM     25  C   UNL     1       5.003   4.675  -4.333  0.00  0.00    +0.253 C 
ATOM     26  O   UNL     1       3.739   4.335  -4.522  0.00  0.00    -0.468 OA
ENDBRANCH  19  26
BRANCH  20  27
ATOM     27  O   UNL     1       2.210   6.103  -3.075  0.00  0.00    -0.465 OA
ATOM     28  C   UNL     1       2.986   7.189  -2.593  0.00  0.00    +0.253 C 
ENDBRANCH  20  27
BRANCH  21  29
ATOM     29  O   UNL     1      -0.188   6.846  -4.217  0.00  0.00    -0.468 OA
ATOM     30  C   UNL     1      -1.203   7.633  -4.812  0.00  0.00    +0.253 C 
ENDBRANCH  21  29
ENDBRANCH   1  23
TORSDOF 4
ENDMDL
MODEL 3
REMARK VINA RESULT:      -7.7      1.658      6.235
REMARK  Name = 
REMARK  4 active torsions:
REMARK  status: ('A' for Active; 'I' for Inactive)
REMARK    1  A    between atoms: O_2  and  C_3
REMARK    2  A    between atoms: C_5  and  C_6
REMARK    3  A    between atoms: C_25  and  O_26
REMARK    4  A    between atoms: C_28  and  O_29
REMARK                            x       y       z     vdW  Elec       q    Type
REMARK                         _______ _______ _______ _____ _____    ______ ____
ROOT
ATOM      1  C   UNL     1       1.699   6.599  -5.890  0.00  0.00    +0.055 C 
ATOM      2  C   UNL     1       3.145   6.019  -5.103  0.00  0.00    +0.113 C 
ATOM      3  C   UNL     1       4.301   6.868  -6.045  0.00  0.00    +0.090 C 
ATOM      4  C   UNL     1       3.099   7.463  -6.819  0.00  0.00    +0.212 C 
ATOM      5  O   UNL     1       3.118   6.179  -6.602  0.00  0.00    -0.448 OA
ATOM      6  C   UNL     1       4.508   5.947  -7.519  0.00  0.00    +0.178 C 
ATOM      7  O   UNL     1       4.860   4.669  -6.774  0.00  0.00    -0.218 OA
ATOM      8  C   UNL     1       2.991   5.702  -8.049  0.00  0.00    +0.007 A 
ATOM      9  C   UNL     1       2.863   6.009  -9.394  0.00  0.00    +0.038 A 
ATOM     10  C   UNL     1       1.684   5.625  -9.938  0.00  0.00    +0.176 A 
ATOM     11  O   UNL     1       1.218   5.548 -11.222  0.00  0.00    -0.435 OA
ATOM     12  C   UNL     1       0.054   4.721 -11.246  0.00  0.00    +0.429 C 
ATOM     13  O   UNL     1      -0.405   4.712  -9.915  0.00  0.00    -0.435 OA
ATOM     14  C   UNL     1       0.675   5.079  -9.155  0.00  0.00    +0.176 A 
ATOM     15  C   UNL     1       0.633   5.444  -7.851  0.00  0.00    +0.036 A 
ATOM     16  C   UNL     1       3.027   4.962  -6.133  0.00  0.00    +0.317 C 
ATOM     17  O   UNL     1       2.410   3.948  -5.952  0.00  0.00    -0.250 OA
ATOM     18  C   UNL     1       1.790   5.794  -7.310  0.00  0.00    -0.016 A 
ENDROOT
BRANCH   1  23
ATOM     19  C   UNL     1      -1.605   5.988  -4.660  0.00  0.00    +0.175 A 
ATOM     20  C   UNL     1      -1.423   5.340  -3.447  0.00  0.00    +0.206 A 
ATOM     21  C   UNL     1      -0.148   4.944  -3.061  0.00  0.00    +0.175 A 
ATOM     22  C   UNL     1       0.943   5.390  -3.786  0.00  0.00    +0.036 A 
ATOM     23  C   UNL     1       0.754   5.550  -5.154  0.00  0.00    -0.012 A 
ATOM     24  C   UNL     1      -0.533   5.975  -5.500  0.00  0.00    +0.036 A 
BRANCH  19  26
ATOM     25  C   UNL     1      -2.329   8.167  -4.715  0.00  0.00    +0.253 C 
ATOM     26  O   UNL     1      -2.670   6.891  -4.797  0.00  0.00    -0.468 OA
ENDBRANCH  19  26
BRANCH  20  27
ATOM     27  O   UNL     1      -2.549   5.133  -2.686  0.00  0.00    -0.465 OA
ATOM     28  C   UNL     1      -2.917   6.085  -1.701  0.00  0.00    +0.253 C 
ENDBRANCH  20  27
BRANCH  21  29
ATOM     29  O   UNL     1      -0.027   4.569  -1.724  0.00  0.00    -0.468 OA
ATOM     30  C   UNL     1       1.205   4.893  -1.107  0.00  0.00    +0.253 C 
ENDBRANCH  21  29
ENDBRANCH   1  23
TORSDOF 4
ENDMDL
MODEL 4
REMARK VINA RESULT:      -7.6      1.567      1.899
REMARK  Name = 
REMARK  4 active torsions:
REMARK  status: ('A' for Active; 'I' for Inactive)
REMARK    1  A    between atoms: O_2  and  C_3
REMARK    2  A    between atoms: C_5  and  C_6
REMARK    3  A    between atoms: C_25  and  O_26
REMARK    4  A    between atoms: C_28  and  O_29
REMARK                            x       y       z     vdW  Elec       q    Type
REMARK                         _______ _______ _______ _____ _____    ______ ____
ROOT
ATOM      1  C   UNL     1       3.188   5.154  -5.818  0.00  0.00    +0.055 C 
ATOM      2  C   UNL     1       4.791   5.764  -5.493  0.00  0.00    +0.113 C 
ATOM      3  C   UNL     1       5.092   4.913  -4.033  0.00  0.00    +0.090 C 
ATOM      4  C   UNL     1       3.685   4.291  -4.212  0.00  0.00    +0.212 C 
ATOM      5  O   UNL     1       3.813   5.580  -4.361  0.00  0.00    -0.448 OA
ATOM      6  C   UNL     1       4.288   5.813  -2.764  0.00  0.00    +0.178 C 
ATOM      7  O   UNL     1       5.010   7.107  -3.104  0.00  0.00    -0.218 OA
ATOM      8  C   UNL     1       2.779   6.031  -3.329  0.00  0.00    +0.007 A 
ATOM      9  C   UNL     1       1.825   5.701  -2.380  0.00  0.00    +0.038 A 
ATOM     10  C   UNL     1       0.564   6.061  -2.716  0.00  0.00    +0.176 A 
ATOM     11  O   UNL     1      -0.618   6.111  -2.029  0.00  0.00    -0.435 OA
ATOM     12  C   UNL     1      -1.543   6.924  -2.752  0.00  0.00    +0.429 C 
ATOM     13  O   UNL     1      -1.042   6.949  -4.068  0.00  0.00    -0.435 OA
ATOM     14  C   UNL     1       0.281   6.608  -3.961  0.00  0.00    +0.176 A 
ATOM     15  C   UNL     1       1.091   6.264  -4.991  0.00  0.00    +0.036 A 
ATOM     16  C   UNL     1       4.020   6.803  -4.773  0.00  0.00    +0.317 C 
ATOM     17  O   UNL     1       3.643   7.812  -5.301  0.00  0.00    -0.250 OA
ATOM     18  C   UNL     1       2.333   5.937  -4.666  0.00  0.00    -0.016 A 
ENDROOT
BRANCH   1  23
ATOM     19  C   UNL     1       0.991   6.058  -8.494  0.00  0.00    +0.175 A 
ATOM     20  C   UNL     1       1.827   6.469  -9.522  0.00  0.00    +0.206 A 
ATOM     21  C   UNL     1       3.190   6.599  -9.292  0.00  0.00    +0.175 A 
ATOM     22  C   UNL     1       3.723   6.113  -8.111  0.00  0.00    +0.036 A 
ATOM     23  C   UNL     1       2.915   6.204  -6.984  0.00  0.00    -0.012 A 
ATOM     24  C   UNL     1       1.552   6.041  -7.252  0.00  0.00    +0.036 A 
BRANCH  19  26
ATOM     25  C   UNL     1      -1.033   5.221  -7.802  0.00  0.00    +0.253 C 
ATOM     26  O   UNL     1      -0.185   5.361  -8.808  0.00  0.00    -0.468 OA
ENDBRANCH  19  26
BRANCH  20  27
ATOM     27  O   UNL     1       1.230   6.721 -10.734  0.00  0.00    -0.465 OA
ATOM     28  C   UNL     1       1.146   5.690 -11.705  0.00  0.00    +0.253 C 
ENDBRANCH  20  27
BRANCH  21  29
ATOM     29  O   UNL     1       3.971   6.732 -10.440  0.00  0.00    -0.468 OA
ATOM     30  C   UNL     1       4.776   5.614 -10.765  0.00  0.00    +0.253 C 
ENDBRANCH  21  29
ENDBRANCH   1  23
TORSDOF 4
ENDMDL
MODEL 5
REMARK VINA RESULT:      -7.4      2.944      6.215
REMARK  Name = 
REMARK  4 active torsions:
REMARK  status: ('A' for Active; 'I' for Inactive)
REMARK    1  A    between atoms: O_2  and  C_3
REMARK    2  A    between atoms: C_5  and  C_6
REMARK    3  A    between atoms: C_25  and  O_26
REMARK    4  A    between atoms: C_28  and  O_29
REMARK                            x       y       z     vdW  Elec       q    Type
REMARK                         _______ _______ _______ _____ _____    ______ ____
ROOT
ATOM      1  C   UNL     1      -0.188   6.919  -3.918  0.00  0.00    +0.055 C 
ATOM      2  C   UNL     1      -1.398   5.787  -4.468  0.00  0.00    +0.113 C 
ATOM      3  C   UNL     1      -2.796   6.673  -4.014  0.00  0.00    +0.090 C 
ATOM      4  C   UNL     1      -1.825   7.762  -3.495  0.00  0.00    +0.212 C 
ATOM      5  O   UNL     1      -1.593   6.523  -3.167  0.00  0.00    -0.448 OA
ATOM      6  C   UNL     1      -3.030   6.382  -2.303  0.00  0.00    +0.178 C 
ATOM      7  O   UNL     1      -3.056   4.871  -2.475  0.00  0.00    -0.218 OA
ATOM      8  C   UNL     1      -1.574   6.690  -1.647  0.00  0.00    +0.007 A 
ATOM      9  C   UNL     1      -1.677   7.518  -0.541  0.00  0.00    +0.038 A 
ATOM     10  C   UNL     1      -0.530   7.636   0.168  0.00  0.00    +0.176 A 
ATOM     11  O   UNL     1      -0.228   8.168   1.392  0.00  0.00    -0.435 OA
ATOM     12  C   UNL     1       1.048   7.682   1.809  0.00  0.00    +0.429 C 
ATOM     13  O   UNL     1       1.670   7.249   0.622  0.00  0.00    -0.435 OA
ATOM     14  C   UNL     1       0.651   7.052  -0.272  0.00  0.00    +0.176 A 
ATOM     15  C   UNL     1       0.798   6.877  -1.608  0.00  0.00    +0.036 A 
ATOM     16  C   UNL     1      -1.234   5.268  -3.091  0.00  0.00    +0.317 C 
ATOM     17  O   UNL     1      -0.433   4.419  -2.810  0.00  0.00    -0.250 OA
ATOM     18  C   UNL     1      -0.323   6.735  -2.300  0.00  0.00    -0.016 A 
ENDROOT
BRANCH   1  23
ATOM     19  C   UNL     1       3.289   6.581  -4.689  0.00  0.00    +0.175 A 
ATOM     20  C   UNL     1       3.368   5.468  -5.513  0.00  0.00    +0.206 A 
ATOM     21  C   UNL     1       2.241   4.685  -5.725  0.00  0.00    +0.175 A 
ATOM     22  C   UNL     1       1.011   5.144  -5.287  0.00  0.00    +0.036 A 
ATOM     23  C   UNL     1       1.010   5.889  -4.114  0.00  0.00    -0.012 A 
ATOM     24  C   UNL     1       2.149   6.684  -3.950  0.00  0.00    +0.036 A 
BRANCH  19  26
ATOM     25  C   UNL     1       5.014   7.908  -3.953  0.00  0.00    +0.253 C 
ATOM     26  O   UNL     1       4.147   7.665  -4.923  0.00  0.00    -0.468 OA
ENDBRANCH  19  26
BRANCH  20  27
ATOM     27  O   UNL     1       4.593   5.214  -6.085  0.00  0.00    -0.465 OA
ATOM     28  C   UNL     1       4.850   5.638  -7.414  0.00  0.00    +0.253 C 
ENDBRANCH  20  27
BRANCH  21  29
ATOM     29  O   UNL     1       2.344   3.776  -6.777  0.00  0.00    -0.468 OA
ATOM     30  C   UNL     1       1.804   4.208  -8.013  0.00  0.00    +0.253 C 
ENDBRANCH  21  29
ENDBRANCH   1  23
TORSDOF 4
ENDMDL
MODEL 6
REMARK VINA RESULT:      -7.4      2.100      4.789
REMARK  Name = 
REMARK  4 active torsions:
REMARK  status: ('A' for Active; 'I' for Inactive)
REMARK    1  A    between atoms: O_2  and  C_3
REMARK    2  A    between atoms: C_5  and  C_6
REMARK    3  A    between atoms: C_25  and  O_26
REMARK    4  A    between atoms: C_28  and  O_29
REMARK                            x       y       z     vdW  Elec       q    Type
REMARK                         _______ _______ _______ _____ _____    ______ ____
ROOT
ATOM      1  C   UNL     1       3.314   6.702  -9.196  0.00  0.00    +0.055 C 
ATOM      2  C   UNL     1       1.870   6.166 -10.016  0.00  0.00    +0.113 C 
ATOM      3  C   UNL     1       0.722   7.078  -9.124  0.00  0.00    +0.090 C 
ATOM      4  C   UNL     1       1.923   7.638  -8.324  0.00  0.00    +0.212 C 
ATOM      5  O   UNL     1       1.859   6.352  -8.520  0.00  0.00    -0.448 OA
ATOM      6  C   UNL     1       0.434   6.192  -7.641  0.00  0.00    +0.178 C 
ATOM      7  O   UNL     1       0.053   4.916  -8.375  0.00  0.00    -0.218 OA
ATOM      8  C   UNL     1       1.924   5.896  -7.062  0.00  0.00    +0.007 A 
ATOM      9  C   UNL     1       2.025   6.222  -5.719  0.00  0.00    +0.038 A 
ATOM     10  C   UNL     1       3.171   5.802  -5.133  0.00  0.00    +0.176 A 
ATOM     11  O   UNL     1       3.596   5.729  -3.835  0.00  0.00    -0.435 OA
ATOM     12  C   UNL     1       4.724   4.857  -3.762  0.00  0.00    +0.429 C 
ATOM     13  O   UNL     1       5.221   4.806  -5.079  0.00  0.00    -0.435 OA
ATOM     14  C   UNL     1       4.180   5.202  -5.877  0.00  0.00    +0.176 A 
ATOM     15  C   UNL     1       4.275   5.541  -7.185  0.00  0.00    +0.036 A 
ATOM     16  C   UNL     1       1.914   5.123  -8.966  0.00  0.00    +0.317 C 
ATOM     17  O   UNL     1       2.494   4.083  -9.111  0.00  0.00    -0.250 OA
ATOM     18  C   UNL     1       3.149   5.927  -7.767  0.00  0.00    -0.016 A 
ENDROOT
BRANCH   1  23
ATOM     19  C   UNL     1       6.650   5.885 -10.201  0.00  0.00    +0.175 A 
ATOM     20  C   UNL     1       6.513   5.271 -11.437  0.00  0.00    +0.206 A 
ATOM     21  C   UNL     1       5.246   4.971 -11.921  0.00  0.00    +0.175 A 
ATOM     22  C   UNL     1       4.138   5.479 -11.267  0.00  0.00    +0.036 A 
ATOM     23  C   UNL     1       4.237   5.603  -9.886  0.00  0.00    -0.012 A 
ATOM     24  C   UNL     1       5.521   5.932  -9.440  0.00  0.00    +0.036 A 
BRANCH  19  26
ATOM     25  C   UNL     1       7.624   7.956 -10.393  0.00  0.00    +0.253 C 
ATOM     26  O   UNL     1       7.760   6.710  -9.969  0.00  0.00    -0.468 OA
ENDBRANCH  19  26
BRANCH  20  27
ATOM     27  O   UNL     1       7.675   5.000 -12.120  0.00  0.00    -0.465 OA
ATOM     28  C   UNL     1       8.063   5.828 -13.204  0.00  0.00    +0.253 C 
ENDBRANCH  20  27
BRANCH  21  29
ATOM     29  O   UNL     1       5.197   4.628 -13.272  0.00  0.00    -0.468 OA
ATOM     30  C   UNL     1       4.054   5.076 -13.976  0.00  0.00    +0.253 C 
ENDBRANCH  21  29
ENDBRANCH   1  23
TORSDOF 4
ENDMDL
MODEL 7
REMARK VINA RESULT:      -7.4      2.424      7.243
REMARK  Name = 
REMARK  4 active torsions:
REMARK  status: ('A' for Active; 'I' for Inactive)
REMARK    1  A    between atoms: O_2  and  C_3
REMARK    2  A    between atoms: C_5  and  C_6
REMARK    3  A    between atoms: C_25  and  O_26
REMARK    4  A    between atoms: C_28  and  O_29
REMARK                            x       y       z     vdW  Elec       q    Type
REMARK                         _______ _______ _______ _____ _____    ______ ____
ROOT
ATOM      1  C   UNL     1       0.875   4.903  -5.579  0.00  0.00    +0.055 C 
ATOM      2  C   UNL     1       0.012   5.556  -6.948  0.00  0.00    +0.113 C 
ATOM      3  C   UNL     1       1.096   5.067  -8.185  0.00  0.00    +0.090 C 
ATOM      4  C   UNL     1       1.951   4.434  -7.059  0.00  0.00    +0.212 C 
ATOM      5  O   UNL     1       1.515   5.651  -6.893  0.00  0.00    -0.448 OA
ATOM      6  C   UNL     1       2.390   6.246  -8.200  0.00  0.00    +0.178 C 
ATOM      7  O   UNL     1       1.438   7.417  -8.383  0.00  0.00    -0.218 OA
ATOM      8  C   UNL     1       2.857   6.341  -6.646  0.00  0.00    +0.007 A 
ATOM      9  C   UNL     1       4.233   6.251  -6.518  0.00  0.00    +0.038 A 
ATOM     10  C   UNL     1       4.693   6.536  -5.277  0.00  0.00    +0.176 A 
ATOM     11  O   UNL     1       5.939   6.758  -4.759  0.00  0.00    -0.435 OA
ATOM     12  C   UNL     1       5.810   7.389  -3.485  0.00  0.00    +0.429 C 
ATOM     13  O   UNL     1       4.493   7.101  -3.077  0.00  0.00    -0.435 OA
ATOM     14  C   UNL     1       3.818   6.781  -4.225  0.00  0.00    +0.176 A 
ATOM     15  C   UNL     1       2.597   6.197  -4.284  0.00  0.00    +0.036 A 
ATOM     16  C   UNL     1       0.841   6.742  -6.638  0.00  0.00    +0.317 C 
ATOM     17  O   UNL     1       0.483   7.603  -5.883  0.00  0.00    -0.250 OA
ATOM     18  C   UNL     1       2.134   5.942  -5.499  0.00  0.00    -0.016 A 
ENDROOT
BRANCH   1  23
ATOM     19  C   UNL     1       0.053   5.200  -2.109  0.00  0.00    +0.175 A 
ATOM     20  C   UNL     1      -1.327   5.338  -2.077  0.00  0.00    +0.206 A 
ATOM     21  C   UNL     1      -2.033   5.488  -3.263  0.00  0.00    +0.175 A 
ATOM     22  C   UNL     1      -1.379   5.283  -4.465  0.00  0.00    +0.036 A 
ATOM     23  C   UNL     1      -0.041   5.655  -4.514  0.00  0.00    -0.012 A 
ATOM     24  C   UNL     1       0.642   5.464  -3.309  0.00  0.00    +0.036 A 
BRANCH  19  26
ATOM     25  C   UNL     1       1.991   4.693  -0.984  0.00  0.00    +0.253 C 
ATOM     26  O   UNL     1       0.690   4.475  -1.090  0.00  0.00    -0.468 OA
ENDBRANCH  19  26
BRANCH  20  27
ATOM     27  O   UNL     1      -1.917   5.311  -0.835  0.00  0.00    -0.465 OA
ATOM     28  C   UNL     1      -1.745   6.405   0.050  0.00  0.00    +0.253 C 
ENDBRANCH  20  27
BRANCH  21  29
ATOM     29  O   UNL     1      -3.413   5.331  -3.152  0.00  0.00    -0.468 OA
ATOM     30  C   UNL     1      -4.137   6.502  -2.821  0.00  0.00    +0.253 C 
ENDBRANCH  21  29
ENDBRANCH   1  23
TORSDOF 4
ENDMDL
MODEL 8
REMARK VINA RESULT:      -7.2      2.343      6.498
REMARK  Name = 
REMARK  4 active torsions:
REMARK  status: ('A' for Active; 'I' for Inactive)
REMARK    1  A    between atoms: O_2  and  C_3
REMARK    2  A    between atoms: C_5  and  C_6
REMARK    3  A    between atoms: C_25  and  O_26
REMARK    4  A    between atoms: C_28  and  O_29
REMARK                            x       y       z     vdW  Elec       q    Type
REMARK                         _______ _______ _______ _____ _____    ______ ____
ROOT
ATOM      1  C   UNL     1       2.119   6.814  -3.932  0.00  0.00    +0.055 C 
ATOM      2  C   UNL     1       3.110   6.551  -2.519  0.00  0.00    +0.113 C 
ATOM      3  C   UNL     1       4.510   7.400  -3.034  0.00  0.00    +0.090 C 
ATOM      4  C   UNL     1       3.732   7.711  -4.336  0.00  0.00    +0.212 C 
ATOM      5  O   UNL     1       3.727   6.486  -3.893  0.00  0.00    -0.448 OA
ATOM      6  C   UNL     1       5.389   6.308  -4.084  0.00  0.00    +0.178 C 
ATOM      7  O   UNL     1       5.454   5.211  -3.033  0.00  0.00    -0.218 OA
ATOM      8  C   UNL     1       4.269   5.790  -5.142  0.00  0.00    +0.007 A 
ATOM      9  C   UNL     1       4.720   5.878  -6.449  0.00  0.00    +0.038 A 
ATOM     10  C   UNL     1       3.919   5.266  -7.353  0.00  0.00    +0.176 A 
ATOM     11  O   UNL     1       4.061   4.941  -8.673  0.00  0.00    -0.435 OA
ATOM     12  C   UNL     1       3.073   3.973  -9.025  0.00  0.00    +0.429 C 
ATOM     13  O   UNL     1       2.082   4.098  -8.032  0.00  0.00    -0.435 OA
ATOM     14  C   UNL     1       2.702   4.711  -6.975  0.00  0.00    +0.176 A 
ATOM     15  C   UNL     1       2.078   5.254  -5.902  0.00  0.00    +0.036 A 
ATOM     16  C   UNL     1       3.511   5.349  -3.284  0.00  0.00    +0.317 C 
ATOM     17  O   UNL     1       2.936   4.300  -3.190  0.00  0.00    -0.250 OA
ATOM     18  C   UNL     1       2.863   5.829  -5.003  0.00  0.00    -0.016 A 
ENDROOT
BRANCH   1  23
ATOM     19  C   UNL     1      -1.267   5.746  -4.379  0.00  0.00    +0.175 A 
ATOM     20  C   UNL     1      -1.721   5.448  -3.103  0.00  0.00    +0.206 A 
ATOM     21  C   UNL     1      -0.833   5.456  -2.035  0.00  0.00    +0.175 A 
ATOM     22  C   UNL     1       0.439   5.968  -2.222  0.00  0.00    +0.036 A 
ATOM     23  C   UNL     1       1.009   5.768  -3.474  0.00  0.00    -0.012 A 
ATOM     24  C   UNL     1       0.087   5.793  -4.524  0.00  0.00    +0.036 A 
BRANCH  19  26
ATOM     25  C   UNL     1      -2.292   5.650  -6.433  0.00  0.00    +0.253 C 
ATOM     26  O   UNL     1      -2.153   6.323  -5.302  0.00  0.00    -0.468 OA
ENDBRANCH  19  26
BRANCH  20  27
ATOM     27  O   UNL     1      -3.061   5.162  -2.980  0.00  0.00    -0.465 OA
ATOM     28  C   UNL     1      -3.981   6.208  -2.712  0.00  0.00    +0.253 C 
ENDBRANCH  20  27
BRANCH  21  29
ATOM     29  O   UNL     1      -1.427   5.430  -0.775  0.00  0.00    -0.468 OA
ATOM     30  C   UNL     1      -1.359   6.640  -0.042  0.00  0.00    +0.253 C 
ENDBRANCH  21  29
ENDBRANCH   1  23
TORSDOF 4
ENDMDL
MODEL 9
REMARK VINA RESULT:      -7.0      2.018      5.001
REMARK  Name = 
REMARK  4 active torsions:
REMARK  status: ('A' for Active; 'I' for Inactive)
REMARK    1  A    between atoms: O_2  and  C_3
REMARK    2  A    between atoms: C_5  and  C_6
REMARK    3  A    between atoms: C_25  and  O_26
REMARK    4  A    between atoms: C_28  and  O_29
REMARK                            x       y       z     vdW  Elec       q    Type
REMARK                         _______ _______ _______ _____ _____    ______ ____
ROOT
ATOM      1  C   UNL     1      -0.143   7.263  -5.473  0.00  0.00    +0.055 C 
ATOM      2  C   UNL     1      -1.622   6.678  -6.191  0.00  0.00    +0.113 C 
ATOM      3  C   UNL     1      -2.727   7.311  -5.041  0.00  0.00    +0.090 C 
ATOM      4  C   UNL     1      -1.492   7.895  -4.311  0.00  0.00    +0.212 C 
ATOM      5  O   UNL     1      -1.451   6.650  -4.694  0.00  0.00    -0.448 OA
ATOM      6  C   UNL     1      -2.722   6.199  -3.689  0.00  0.00    +0.178 C 
ATOM      7  O   UNL     1      -3.067   5.002  -4.561  0.00  0.00    -0.218 OA
ATOM      8  C   UNL     1      -1.146   6.006  -3.341  0.00  0.00    +0.007 A 
ATOM      9  C   UNL     1      -0.899   6.150  -1.985  0.00  0.00    +0.038 A 
ATOM     10  C   UNL     1       0.351   5.793  -1.610  0.00  0.00    +0.176 A 
ATOM     11  O   UNL     1       0.951   5.590  -0.398  0.00  0.00    -0.435 OA
ATOM     12  C   UNL     1       2.161   4.858  -0.592  0.00  0.00    +0.429 C 
ATOM     13  O   UNL     1       2.480   5.052  -1.950  0.00  0.00    -0.435 OA
ATOM     14  C   UNL     1       1.307   5.428  -2.550  0.00  0.00    +0.176 A 
ATOM     15  C   UNL     1       1.191   5.956  -3.792  0.00  0.00    +0.036 A 
ATOM     16  C   UNL     1      -1.332   5.512  -5.327  0.00  0.00    +0.317 C 
ATOM     17  O   UNL     1      -0.674   4.579  -5.697  0.00  0.00    -0.250 OA
ATOM     18  C   UNL     1      -0.036   6.282  -4.171  0.00  0.00    -0.016 A 
ENDROOT
BRANCH   1  23
ATOM     19  C   UNL     1       3.216   6.673  -6.557  0.00  0.00    +0.175 A 
ATOM     20  C   UNL     1       3.120   6.462  -7.925  0.00  0.00    +0.206 A 
ATOM     21  C   UNL     1       1.870   6.363  -8.522  0.00  0.00    +0.175 A 
ATOM     22  C   UNL     1       0.745   6.688  -7.785  0.00  0.00    +0.036 A 
ATOM     23  C   UNL     1       0.786   6.390  -6.428  0.00  0.00    -0.012 A 
ATOM     24  C   UNL     1       2.055   6.528  -5.858  0.00  0.00    +0.036 A 
BRANCH  19  26
ATOM     25  C   UNL     1       4.430   7.349  -4.729  0.00  0.00    +0.253 C 
ATOM     26  O   UNL     1       4.332   7.353  -6.049  0.00  0.00    -0.468 OA
ENDBRANCH  19  26
BRANCH  20  27
ATOM     27  O   UNL     1       4.305   6.368  -8.616  0.00  0.00    -0.465 OA
ATOM     28  C   UNL     1       5.008   5.136  -8.644  0.00  0.00    +0.253 C 
ENDBRANCH  20  27
BRANCH  21  29
ATOM     29  O   UNL     1       1.874   6.441  -9.914  0.00  0.00    -0.468 OA
ATOM     30  C   UNL     1       0.613   6.669 -10.517  0.00  0.00    +0.253 C 
ENDBRANCH  21  29
ENDBRANCH   1  23
TORSDOF 4
ENDMDL
