MODEL 1
REMARK VINA RESULT:      -8.8      0.000      0.000
REMARK  Name = 
REMARK  2 active torsions:
REMARK  status: ('A' for Active; 'I' for Inactive)
REMARK    1  A    between atoms: C_4  and  C_5
REMARK    2  A    between atoms: N_7  and  C_8
REMARK                            x       y       z     vdW  Elec       q    Type
REMARK                         _______ _______ _______ _____ _____    ______ ____
ROOT
ATOM      1  C   UNL     1       2.409   7.244  -7.814  0.00  0.00    +0.284 C 
ATOM      2  N   UNL     1       1.882   6.299  -6.870  0.00  0.00    -0.202 NA
ATOM      3  O   UNL     1       2.097   8.462  -7.717  0.00  0.00    -0.267 OA
ENDROOT
BRANCH   1  11
ATOM      4  C   UNL     1       4.490   6.199 -11.801  0.00  0.00    +0.154 C 
ATOM      5  N   UNL     1       3.787   6.309 -11.058  0.00  0.00    -0.249 N 
ATOM      6  C   UNL     1       2.488   5.921 -11.145  0.00  0.00    +0.080 A 
ATOM      7  C   UNL     1       1.774   6.371 -10.071  0.00  0.00    +0.041 A 
ATOM      8  C   UNL     1       0.404   6.600 -10.071  0.00  0.00    +0.003 A 
ATOM      9  C   UNL     1      -0.292   6.378 -11.236  0.00  0.00    +0.000 A 
ATOM     10  C   UNL     1       0.335   5.614 -12.201  0.00  0.00    +0.002 A 
ATOM     11  C   UNL     1       2.743   6.772  -9.162  0.00  0.00    +0.157 A 
ATOM     12  C   UNL     1       1.710   5.406 -12.179  0.00  0.00    +0.019 A 
ATOM     13  N   UNL     1       3.896   6.778  -9.816  0.00  0.00    -0.165 NA
ENDBRANCH   1  11
BRANCH   2  14
ATOM     14  C   UNL     1       0.973   6.703  -5.953  0.00  0.00    +0.098 C 
ATOM     15  C   UNL     1       1.014   6.304  -4.639  0.00  0.00    +0.038 C 
ATOM     16  C   UNL     1      -0.547   6.722  -4.871  0.00  0.00    +0.059 C 
ATOM     17  N   UNL     1      -0.959   5.589  -3.916  0.00  0.00    -0.274 NA
ATOM     18  C   UNL     1      -1.490   6.410  -5.042  0.00  0.00    +0.059 C 
ATOM     19  C   UNL     1      -2.595   5.262  -5.418  0.00  0.00    +0.016 C 
ATOM     20  C   UNL     1      -2.277   5.859  -6.720  0.00  0.00    +0.003 C 
ATOM     21  C   UNL     1      -0.349   6.297  -2.856  0.00  0.00    +0.090 C 
ATOM     22  C   UNL     1      -0.899   5.789  -6.244  0.00  0.00    +0.016 C 
ATOM     23  C   UNL     1      -0.228   5.850  -6.053  0.00  0.00    +0.038 C 
ENDBRANCH   2  14
TORSDOF 2
ENDMDL
MODEL 2
REMARK VINA RESULT:      -8.8      2.883      4.580
REMARK  Name = 
REMARK  2 active torsions:
REMARK  status: ('A' for Active; 'I' for Inactive)
REMARK    1  A    between atoms: C_4  and  C_5
REMARK    2  A    between atoms: N_7  and  C_8
REMARK                            x       y       z     vdW  Elec       q    Type
REMARK                         _______ _______ _______ _____ _____    ______ ____
ROOT
ATOM      1  C   UNL     1       3.156   5.167  -8.840  0.00  0.00    +0.284 C 
ATOM      2  N   UNL     1       3.042   6.148  -7.797  0.00  0.00    -0.202 NA
ATOM      3  O   UNL     1       3.144   3.941  -8.546  0.00  0.00    -0.267 OA
ENDROOT
BRANCH   1  11
ATOM      4  C   UNL     1       4.514   5.871 -13.197  0.00  0.00    +0.154 C 
ATOM      5  N   UNL     1       4.489   5.828 -12.169  0.00  0.00    -0.249 N 
ATOM      6  C   UNL     1       5.494   6.223 -11.344  0.00  0.00    +0.080 A 
ATOM      7  C   UNL     1       5.229   5.867 -10.052  0.00  0.00    +0.041 A 
ATOM      8  C   UNL     1       6.195   5.655  -9.076  0.00  0.00    +0.003 A 
ATOM      9  C   UNL     1       7.517   5.793  -9.428  0.00  0.00    +0.000 A 
ATOM     10  C   UNL     1       7.781   6.472 -10.602  0.00  0.00    +0.002 A 
ATOM     11  C   UNL     1       3.883   5.528 -10.061  0.00  0.00    +0.157 A 
ATOM     12  C   UNL     1       6.796   6.664 -11.565  0.00  0.00    +0.019 A 
ATOM     13  N   UNL     1       3.520   5.457 -11.333  0.00  0.00    -0.165 NA
ENDBRANCH   1  11
BRANCH   2  14
ATOM     14  C   UNL     1       3.032   5.754  -6.503  0.00  0.00    +0.098 C 
ATOM     15  C   UNL     1       1.913   5.831  -5.711  0.00  0.00    +0.038 C 
ATOM     16  C   UNL     1       3.147   5.817  -4.642  0.00  0.00    +0.059 C 
ATOM     17  N   UNL     1       2.339   6.770  -3.744  0.00  0.00    -0.274 NA
ATOM     18  C   UNL     1       3.742   6.353  -4.030  0.00  0.00    +0.059 C 
ATOM     19  C   UNL     1       4.329   7.763  -3.442  0.00  0.00    +0.016 C 
ATOM     20  C   UNL     1       5.285   7.418  -4.500  0.00  0.00    +0.003 C 
ATOM     21  C   UNL     1       1.407   5.731  -3.526  0.00  0.00    +0.090 C 
ATOM     22  C   UNL     1       4.087   7.086  -5.264  0.00  0.00    +0.016 C 
ATOM     23  C   UNL     1       3.562   6.842  -5.659  0.00  0.00    +0.038 C 
ENDBRANCH   2  14
TORSDOF 2
ENDMDL
MODEL 3
REMARK VINA RESULT:      -8.8      1.608      6.387
REMARK  Name = 
REMARK  2 active torsions:
REMARK  status: ('A' for Active; 'I' for Inactive)
REMARK    1  A    between atoms: C_4  and  C_5
REMARK    2  A    between atoms: N_7  and  C_8
REMARK                            x       y       z     vdW  Elec       q    Type
REMARK                         _______ _______ _______ _____ _____    ______ ____
ROOT
ATOM      1  C   UNL     1       2.045   4.734  -5.982  0.00  0.00    +0.284 C 
ATOM      2  N   UNL     1       2.592   5.720  -6.871  0.00  0.00    -0.202 NA
ATOM      3  O   UNL     1       1.944   3.537  -6.366  0.00  0.00    -0.267 OA
ENDROOT
BRANCH   1  11
ATOM      4  C   UNL     1      -0.259   5.586  -2.072  0.00  0.00    +0.154 C 
ATOM      5  N   UNL     1       0.011   5.535  -3.064  0.00  0.00    -0.249 N 
ATOM      6  C   UNL     1      -0.725   6.015  -4.101  0.00  0.00    +0.080 A 
ATOM      7  C   UNL     1      -0.188   5.629  -5.296  0.00  0.00    +0.041 A 
ATOM      8  C   UNL     1      -0.904   5.500  -6.480  0.00  0.00    +0.003 A 
ATOM      9  C   UNL     1      -2.253   5.760  -6.456  0.00  0.00    +0.000 A 
ATOM     10  C   UNL     1      -2.732   6.468  -5.370  0.00  0.00    +0.002 A 
ATOM     11  C   UNL     1       1.079   5.168  -4.967  0.00  0.00    +0.157 A 
ATOM     12  C   UNL     1      -1.996   6.575  -4.194  0.00  0.00    +0.019 A 
ATOM     13  N   UNL     1       1.115   5.071  -3.647  0.00  0.00    -0.165 NA
ENDBRANCH   1  11
BRANCH   2  14
ATOM     14  C   UNL     1       2.891   5.382  -8.147  0.00  0.00    +0.098 C 
ATOM     15  C   UNL     1       3.727   6.131  -8.938  0.00  0.00    +0.038 C 
ATOM     16  C   UNL     1       2.819   5.298 -10.009  0.00  0.00    +0.059 C 
ATOM     17  N   UNL     1       2.861   6.517 -10.945  0.00  0.00    -0.274 NA
ATOM     18  C   UNL     1       2.039   5.310 -10.647  0.00  0.00    +0.059 C 
ATOM     19  C   UNL     1       0.705   6.000 -11.298  0.00  0.00    +0.016 C 
ATOM     20  C   UNL     1       0.157   5.158 -10.229  0.00  0.00    +0.003 C 
ATOM     21  C   UNL     1       4.247   6.307 -11.115  0.00  0.00    +0.090 C 
ATOM     22  C   UNL     1       1.267   5.693  -9.447  0.00  0.00    +0.016 C 
ATOM     23  C   UNL     1       1.814   5.853  -9.040  0.00  0.00    +0.038 C 
ENDBRANCH   2  14
TORSDOF 2
ENDMDL
MODEL 4
REMARK VINA RESULT:      -8.6      2.498      7.640
REMARK  Name = 
REMARK  2 active torsions:
REMARK  status: ('A' for Active; 'I' for Inactive)
REMARK    1  A    between atoms: C_4  and  C_5
REMARK    2  A    between atoms: N_7  and  C_8
REMARK                            x       y       z     vdW  Elec       q    Type
REMARK                         _______ _______ _______ _____ _____    ______ ____
ROOT
ATOM      1  C   UNL     1       2.400   6.965  -7.622  0.00  0.00    +0.284 C 
ATOM      2  N   UNL     1       3.209   6.056  -8.383  0.00  0.00    -0.202 NA
ATOM      3  O   UNL     1       2.312   8.171  -7.981  0.00  0.00    -0.267 OA
ENDROOT
BRANCH   1  11
ATOM      4  C   UNL     1       0.712   6.247  -3.385  0.00  0.00    +0.154 C 
ATOM      5  N   UNL     1       1.352   6.383  -4.178  0.00  0.00    -0.249 N 
ATOM      6  C   UNL     1       2.709   6.373  -4.099  0.00  0.00    +0.080 A 
ATOM      7  C   UNL     1       3.266   6.765  -5.283  0.00  0.00    +0.041 A 
ATOM      8  C   UNL     1       4.525   7.339  -5.414  0.00  0.00    +0.003 A 
ATOM      9  C   UNL     1       5.265   7.547  -4.274  0.00  0.00    +0.000 A 
ATOM     10  C   UNL     1       4.875   6.858  -3.143  0.00  0.00    +0.002 A 
ATOM     11  C   UNL     1       2.217   6.706  -6.190  0.00  0.00    +0.157 A 
ATOM     12  C   UNL     1       3.605   6.300  -3.037  0.00  0.00    +0.019 A 
ATOM     13  N   UNL     1       1.111   6.545  -5.478  0.00  0.00    -0.165 NA
ENDBRANCH   1  11
BRANCH   2  14
ATOM     14  C   UNL     1       3.955   6.521  -9.411  0.00  0.00    +0.098 C 
ATOM     15  C   UNL     1       3.775   6.104 -10.708  0.00  0.00    +0.038 C 
ATOM     16  C   UNL     1       5.314   6.651 -10.683  0.00  0.00    +0.059 C 
ATOM     17  N   UNL     1       5.690   5.544 -11.683  0.00  0.00    -0.274 NA
ATOM     18  C   UNL     1       6.294   6.419 -10.637  0.00  0.00    +0.059 C 
ATOM     19  C   UNL     1       7.529   5.370 -10.408  0.00  0.00    +0.016 C 
ATOM     20  C   UNL     1       7.335   5.955  -9.076  0.00  0.00    +0.003 C 
ATOM     21  C   UNL     1       4.890   6.186 -12.655  0.00  0.00    +0.090 C 
ATOM     22  C   UNL     1       5.918   5.766  -9.367  0.00  0.00    +0.016 C 
ATOM     23  C   UNL     1       5.225   5.770  -9.469  0.00  0.00    +0.038 C 
ENDBRANCH   2  14
TORSDOF 2
ENDMDL
MODEL 5
REMARK VINA RESULT:      -8.6      1.873      7.218
REMARK  Name = 
REMARK  2 active torsions:
REMARK  status: ('A' for Active; 'I' for Inactive)
REMARK    1  A    between atoms: C_4  and  C_5
REMARK    2  A    between atoms: N_7  and  C_8
REMARK                            x       y       z     vdW  Elec       q    Type
REMARK                         _______ _______ _______ _____ _____    ______ ____
ROOT
ATOM      1  C   UNL     1       2.175   6.510  -8.453  0.00  0.00    +0.284 C 
ATOM      2  N   UNL     1       3.451   5.930  -8.766  0.00  0.00    -0.202 NA
ATOM      3  O   UNL     1       1.686   7.387  -9.214  0.00  0.00    -0.267 OA
ENDROOT
BRANCH   1  11
ATOM      4  C   UNL     1       2.024   6.758  -3.844  0.00  0.00    +0.154 C 
ATOM      5  N   UNL     1       1.755   6.685  -4.834  0.00  0.00    -0.249 N 
ATOM      6  C   UNL     1       0.481   6.575  -5.293  0.00  0.00    +0.080 A 
ATOM      7  C   UNL     1       0.469   6.310  -6.633  0.00  0.00    +0.041 A 
ATOM      8  C   UNL     1      -0.562   5.662  -7.303  0.00  0.00    +0.003 A 
ATOM      9  C   UNL     1      -1.646   5.237  -6.571  0.00  0.00    +0.000 A 
ATOM     10  C   UNL     1      -1.805   5.790  -5.315  0.00  0.00    +0.002 A 
ATOM     11  C   UNL     1       1.767   6.579  -7.045  0.00  0.00    +0.157 A 
ATOM     12  C   UNL     1      -0.753   6.427  -4.666  0.00  0.00    +0.019 A 
ATOM     13  N   UNL     1       2.490   6.726  -5.945  0.00  0.00    -0.165 NA
ENDBRANCH   1  11
BRANCH   2  14
ATOM     14  C   UNL     1       4.165   6.406  -9.812  0.00  0.00    +0.098 C 
ATOM     15  C   UNL     1       4.035   5.913 -11.087  0.00  0.00    +0.038 C 
ATOM     16  C   UNL     1       5.521   6.588 -11.080  0.00  0.00    +0.059 C 
ATOM     17  N   UNL     1       5.999   5.470 -12.022  0.00  0.00    -0.274 NA
ATOM     18  C   UNL     1       6.516   6.443 -11.017  0.00  0.00    +0.059 C 
ATOM     19  C   UNL     1       7.834   5.515 -10.729  0.00  0.00    +0.016 C 
ATOM     20  C   UNL     1       7.578   6.145  -9.429  0.00  0.00    +0.003 C 
ATOM     21  C   UNL     1       5.158   5.994 -13.029  0.00  0.00    +0.090 C 
ATOM     22  C   UNL     1       6.184   5.823  -9.719  0.00  0.00    +0.016 C 
ATOM     23  C   UNL     1       5.494   5.764  -9.825  0.00  0.00    +0.038 C 
ENDBRANCH   2  14
TORSDOF 2
ENDMDL
MODEL 6
REMARK VINA RESULT:      -8.6      1.032      2.274
REMARK  Name = 
REMARK  2 active torsions:
REMARK  status: ('A' for Active; 'I' for Inactive)
REMARK    1  A    between atoms: C_4  and  C_5
REMARK    2  A    between atoms: N_7  and  C_8
REMARK                            x       y       z     vdW  Elec       q    Type
REMARK                         _______ _______ _______ _____ _____    ______ ____
ROOT
ATOM      1  C   UNL     1       2.203   7.114  -8.039  0.00  0.00    +0.284 C 
ATOM      2  N   UNL     1       1.652   6.169  -7.109  0.00  0.00    -0.202 NA
ATOM      3  O   UNL     1       2.068   8.349  -7.826  0.00  0.00    -0.267 OA
ENDROOT
BRANCH   1  11
ATOM      4  C   UNL     1       1.477   5.727 -12.384  0.00  0.00    +0.154 C 
ATOM      5  N   UNL     1       1.929   6.031 -11.511  0.00  0.00    -0.249 N 
ATOM      6  C   UNL     1       3.266   6.199 -11.339  0.00  0.00    +0.080 A 
ATOM      7  C   UNL     1       3.561   6.427 -10.025  0.00  0.00    +0.041 A 
ATOM      8  C   UNL     1       4.785   6.147  -9.429  0.00  0.00    +0.003 A 
ATOM      9  C   UNL     1       5.772   5.584 -10.203  0.00  0.00    +0.000 A 
ATOM     10  C   UNL     1       5.613   5.667 -11.572  0.00  0.00    +0.002 A 
ATOM     11  C   UNL     1       2.334   6.715  -9.445  0.00  0.00    +0.157 A 
ATOM     12  C   UNL     1       4.374   5.942 -12.142  0.00  0.00    +0.019 A 
ATOM     13  N   UNL     1       1.410   6.401 -10.341  0.00  0.00    -0.165 NA
ENDBRANCH   1  11
BRANCH   2  14
ATOM     14  C   UNL     1       0.901   6.607  -6.073  0.00  0.00    +0.098 C 
ATOM     15  C   UNL     1       1.087   6.171  -4.783  0.00  0.00    +0.038 C 
ATOM     16  C   UNL     1      -0.458   6.699  -4.798  0.00  0.00    +0.059 C 
ATOM     17  N   UNL     1      -0.819   5.571  -3.816  0.00  0.00    -0.274 NA
ATOM     18  C   UNL     1      -1.434   6.455  -4.847  0.00  0.00    +0.059 C 
ATOM     19  C   UNL     1      -2.657   5.394  -5.093  0.00  0.00    +0.016 C 
ATOM     20  C   UNL     1      -2.472   6.003  -6.415  0.00  0.00    +0.003 C 
ATOM     21  C   UNL     1      -0.026   6.207  -2.835  0.00  0.00    +0.090 C 
ATOM     22  C   UNL     1      -1.052   5.828  -6.128  0.00  0.00    +0.016 C 
ATOM     23  C   UNL     1      -0.359   5.839  -6.027  0.00  0.00    +0.038 C 
ENDBRANCH   2  14
TORSDOF 2
ENDMDL
MODEL 7
REMARK VINA RESULT:      -8.1      2.220      7.539
REMARK  Name = 
REMARK  2 active torsions:
REMARK  status: ('A' for Active; 'I' for Inactive)
REMARK    1  A    between atoms: C_4  and  C_5
REMARK    2  A    between atoms: N_7  and  C_8
REMARK                            x       y       z     vdW  Elec       q    Type
REMARK                         _______ _______ _______ _____ _____    ______ ____
ROOT
ATOM      1  C   UNL     1       2.344   6.492  -8.992  0.00  0.00    +0.284 C 
ATOM      2  N   UNL     1       3.014   5.597  -9.894  0.00  0.00    -0.202 NA
ATOM      3  O   UNL     1       2.556   7.732  -9.072  0.00  0.00    -0.267 OA
ENDROOT
BRANCH   1  11
ATOM      4  C   UNL     1       0.086   5.236  -5.165  0.00  0.00    +0.154 C 
ATOM      5  N   UNL     1       0.828   5.421  -5.853  0.00  0.00    -0.249 N 
ATOM      6  C   UNL     1       2.152   5.181  -5.660  0.00  0.00    +0.080 A 
ATOM      7  C   UNL     1       2.893   5.704  -6.682  0.00  0.00    +0.041 A 
ATOM      8  C   UNL     1       4.225   6.085  -6.578  0.00  0.00    +0.003 A 
ATOM      9  C   UNL     1       4.848   5.946  -5.360  0.00  0.00    +0.000 A 
ATOM     10  C   UNL     1       4.236   5.121  -4.438  0.00  0.00    +0.002 A 
ATOM     11  C   UNL     1       1.960   5.990  -7.668  0.00  0.00    +0.157 A 
ATOM     12  C   UNL     1       2.898   4.760  -4.563  0.00  0.00    +0.019 A 
ATOM     13  N   UNL     1       0.766   5.870  -7.106  0.00  0.00    -0.165 NA
ENDBRANCH   1  11
BRANCH   2  14
ATOM     14  C   UNL     1       3.946   6.079 -10.747  0.00  0.00    +0.098 C 
ATOM     15  C   UNL     1       4.190   5.516 -11.977  0.00  0.00    +0.038 C 
ATOM     16  C   UNL     1       5.574   6.310 -11.629  0.00  0.00    +0.059 C 
ATOM     17  N   UNL     1       6.356   5.190 -12.336  0.00  0.00    -0.274 NA
ATOM     18  C   UNL     1       6.524   6.248 -11.300  0.00  0.00    +0.059 C 
ATOM     19  C   UNL     1       7.777   5.446 -10.617  0.00  0.00    +0.016 C 
ATOM     20  C   UNL     1       7.145   6.115  -9.474  0.00  0.00    +0.003 C 
ATOM     21  C   UNL     1       5.779   5.595 -13.560  0.00  0.00    +0.090 C 
ATOM     22  C   UNL     1       5.903   5.667 -10.094  0.00  0.00    +0.016 C 
ATOM     23  C   UNL     1       5.271   5.547 -10.371  0.00  0.00    +0.038 C 
ENDBRANCH   2  14
TORSDOF 2
ENDMDL
MODEL 8
REMARK VINA RESULT:      -8.0      2.389      3.426
REMARK  Name = 
REMARK  2 active torsions:
REMARK  status: ('A' for Active; 'I' for Inactive)
REMARK    1  A    between atoms: C_4  and  C_5
REMARK    2  A    between atoms: N_7  and  C_8
REMARK                            x       y       z     vdW  Elec       q    Type
REMARK                         _______ _______ _______ _____ _____    ______ ____
ROOT
ATOM      1  C   UNL     1       2.253   4.893  -8.175  0.00  0.00    +0.284 C 
ATOM      2  N   UNL     1       2.251   5.906  -7.158  0.00  0.00    -0.202 NA
ATOM      3  O   UNL     1       2.481   3.694  -7.860  0.00  0.00    -0.267 OA
ENDROOT
BRANCH   1  11
ATOM      4  C   UNL     1       4.470   5.973 -12.080  0.00  0.00    +0.154 C 
ATOM      5  N   UNL     1       3.734   5.801 -11.382  0.00  0.00    -0.249 N 
ATOM      6  C   UNL     1       2.400   5.949 -11.599  0.00  0.00    +0.080 A 
ATOM      7  C   UNL     1       1.703   5.826 -10.431  0.00  0.00    +0.041 A 
ATOM      8  C   UNL     1       0.458   6.393 -10.189  0.00  0.00    +0.003 A 
ATOM      9  C   UNL     1      -0.116   7.150 -11.184  0.00  0.00    +0.000 A 
ATOM     10  C   UNL     1       0.400   7.000 -12.456  0.00  0.00    +0.002 A 
ATOM     11  C   UNL     1       2.618   5.278  -9.543  0.00  0.00    +0.157 A 
ATOM     12  C   UNL     1       1.652   6.434 -12.668  0.00  0.00    +0.019 A 
ATOM     13  N   UNL     1       3.804   5.350 -10.131  0.00  0.00    -0.165 NA
ENDBRANCH   1  11
BRANCH   2  14
ATOM     14  C   UNL     1       2.599   5.586  -5.891  0.00  0.00    +0.098 C 
ATOM     15  C   UNL     1       1.711   5.626  -4.843  0.00  0.00    +0.038 C 
ATOM     16  C   UNL     1       3.170   5.762  -4.123  0.00  0.00    +0.059 C 
ATOM     17  N   UNL     1       2.535   6.702  -3.085  0.00  0.00    -0.274 NA
ATOM     18  C   UNL     1       3.852   6.372  -3.702  0.00  0.00    +0.059 C 
ATOM     19  C   UNL     1       4.446   7.852  -3.334  0.00  0.00    +0.016 C 
ATOM     20  C   UNL     1       5.133   7.518  -4.587  0.00  0.00    +0.003 C 
ATOM     21  C   UNL     1       1.778   5.612  -2.600  0.00  0.00    +0.090 C 
ATOM     22  C   UNL     1       3.814   7.058  -5.009  0.00  0.00    +0.016 C 
ATOM     23  C   UNL     1       3.230   6.755  -5.249  0.00  0.00    +0.038 C 
ENDBRANCH   2  14
TORSDOF 2
ENDMDL
MODEL 9
REMARK VINA RESULT:      -7.8      2.392      7.085
REMARK  Name = 
REMARK  2 active torsions:
REMARK  status: ('A' for Active; 'I' for Inactive)
REMARK    1  A    between atoms: C_4  and  C_5
REMARK    2  A    between atoms: N_7  and  C_8
REMARK                            x       y       z     vdW  Elec       q    Type
REMARK                         _______ _______ _______ _____ _____    ______ ____
ROOT
ATOM      1  C   UNL     1       1.607   6.052  -3.475  0.00  0.00    +0.284 C 
ATOM      2  N   UNL     1       1.692   6.899  -4.632  0.00  0.00    -0.202 NA
ATOM      3  O   UNL     1       2.009   4.860  -3.545  0.00  0.00    -0.267 OA
ENDROOT
BRANCH   1  11
ATOM      4  C   UNL     1      -0.848   6.796   0.365  0.00  0.00    +0.154 C 
ATOM      5  N   UNL     1      -0.578   6.653  -0.618  0.00  0.00    -0.249 N 
ATOM      6  C   UNL     1      -1.434   6.655  -1.673  0.00  0.00    +0.080 A 
ATOM      7  C   UNL     1      -0.797   6.255  -2.814  0.00  0.00    +0.041 A 
ATOM      8  C   UNL     1      -1.426   5.673  -3.908  0.00  0.00    +0.003 A 
ATOM      9  C   UNL     1      -2.784   5.464  -3.842  0.00  0.00    +0.000 A 
ATOM     10  C   UNL     1      -3.475   6.159  -2.869  0.00  0.00    +0.002 A 
ATOM     11  C   UNL     1       0.551   6.318  -2.492  0.00  0.00    +0.157 A 
ATOM     12  C   UNL     1      -2.820   6.726  -1.781  0.00  0.00    +0.019 A 
ATOM     13  N   UNL     1       0.619   6.488  -1.180  0.00  0.00    -0.165 NA
ENDBRANCH   1  11
BRANCH   2  14
ATOM     14  C   UNL     1       2.100   6.382  -5.813  0.00  0.00    +0.098 C 
ATOM     15  C   UNL     1       2.748   7.128  -6.767  0.00  0.00    +0.038 C 
ATOM     16  C   UNL     1       2.103   5.888  -7.613  0.00  0.00    +0.059 C 
ATOM     17  N   UNL     1       1.869   6.853  -8.788  0.00  0.00    -0.274 NA
ATOM     18  C   UNL     1       1.362   5.572  -8.217  0.00  0.00    +0.059 C 
ATOM     19  C   UNL     1      -0.082   5.758  -8.966  0.00  0.00    +0.016 C 
ATOM     20  C   UNL     1      -0.435   5.053  -7.728  0.00  0.00    +0.003 C 
ATOM     21  C   UNL     1       3.269   6.960  -8.944  0.00  0.00    +0.090 C 
ATOM     22  C   UNL     1       0.487   5.999  -7.107  0.00  0.00    +0.016 C 
ATOM     23  C   UNL     1       0.966   6.372  -6.758  0.00  0.00    +0.038 C 
ENDBRANCH   2  14
TORSDOF 2
ENDMDL
