MODEL 1
REMARK VINA RESULT:      -2.7      0.000      0.000
REMARK  Name = 
REMARK  8 active torsions:
REMARK  status: ('A' for Active; 'I' for Inactive)
REMARK    1  A    between atoms: C_2  and  C_3
REMARK    2  A    between atoms: C_3  and  C_5
REMARK    3  A    between atoms: C_20  and  O_21
REMARK    4  A    between atoms: O_21  and  C_22
REMARK    5  A    between atoms: C_24  and  O_25
REMARK    6  A    between atoms: C_27  and  O_28
REMARK    7  A    between atoms: O_28  and  C_29
REMARK    8  A    between atoms: C_31  and  O_32
REMARK                            x       y       z     vdW  Elec       q    Type
REMARK                         _______ _______ _______ _____ _____    ______ ____
ROOT
ATOM      1  C   UNL     1       2.872   5.949  -3.935  0.00  0.00    +0.117 C 
ATOM      2  C   UNL     1       4.427   5.277  -3.769  0.00  0.00    +0.027 C 
ATOM      3  C   UNL     1       5.060   6.460  -4.679  0.00  0.00    +0.002 C 
ATOM      4  C   UNL     1       4.840   5.996  -2.380  0.00  0.00    +0.007 C 
ATOM      5  C   UNL     1       3.929   5.425  -1.285  0.00  0.00    +0.056 C 
ATOM      6  C   UNL     1       2.580   6.006  -1.682  0.00  0.00    +0.190 C 
ATOM      7  O   UNL     1       2.806   7.121  -2.167  0.00  0.00    -0.336 OA
ATOM      8  C   UNL     1       2.536   8.468  -1.617  0.00  0.00    +0.126 C 
ATOM      9  C   UNL     1       3.250   8.184  -0.141  0.00  0.00    +0.055 C 
ATOM     10  C   UNL     1       4.078   9.312   0.162  0.00  0.00    -0.030 C 
ATOM     11  C   UNL     1       4.028  10.613   0.147  0.00  0.00    -0.021 C 
ATOM     12  C   UNL     1       4.501  11.191   1.590  0.00  0.00    +0.140 C 
ATOM     13  C   UNL     1       2.971  11.634   2.232  0.00  0.00    +0.053 C 
ATOM     14  C   UNL     1       2.832  10.235   2.975  0.00  0.00    -0.024 C 
ATOM     15  C   UNL     1       1.660  10.356   3.601  0.00  0.00    -0.005 C 
ATOM     16  C   UNL     1       0.677   9.441   3.217  0.00  0.00    -0.004 C 
ATOM     17  C   UNL     1       0.686   8.366   2.462  0.00  0.00    +0.016 C 
ATOM     18  C   UNL     1      -0.762   8.028   2.195  0.00  0.00    +0.185 C 
ATOM     19  C   UNL     1      -0.893   7.530   3.719  0.00  0.00    +0.182 C 
ATOM     20  C   UNL     1      -1.981   6.194   3.570  0.00  0.00    +0.200 C 
ATOM     21  C   UNL     1      -2.887   6.948   2.472  0.00  0.00    -0.015 C 
ATOM     22  C   UNL     1      -2.486   6.675   1.294  0.00  0.00    -0.019 C 
ATOM     23  C   UNL     1      -4.135   7.559   2.945  0.00  0.00    +0.029 C 
ATOM     24  O   UNL     1      -1.137   5.374   2.616  0.00  0.00    -0.216 OA
ATOM     25  O   UNL     1       0.314   6.621   3.750  0.00  0.00    -0.346 OA
ATOM     26  O   UNL     1      -1.555   9.056   1.951  0.00  0.00    -0.218 OA
ATOM     27  C   UNL     1      -0.876   6.859   1.124  0.00  0.00    +0.154 C 
ATOM     28  C   UNL     1      -1.148   7.848  -0.118  0.00  0.00    +0.323 C 
ATOM     29  O   UNL     1      -0.796   6.779  -0.913  0.00  0.00    -0.452 OA
ATOM     30  C   UNL     1       0.514   6.838  -1.672  0.00  0.00    +0.176 C 
ATOM     31  O   UNL     1      -2.296   8.322  -0.337  0.00  0.00    -0.250 OA
ATOM     32  C   UNL     1       1.063   6.926   2.735  0.00  0.00    +0.167 C 
ATOM     33  C   UNL     1       2.017  11.192   1.008  0.00  0.00    +0.008 C 
ATOM     34  C   UNL     1       4.772  11.298  -0.990  0.00  0.00    +0.028 C 
ATOM     35  C   UNL     1       1.052   8.214  -0.990  0.00  0.00    +0.074 C 
ATOM     36  C   UNL     1       1.466   5.888  -0.696  0.00  0.00    +0.100 C 
ATOM     37  O   UNL     1       2.287   5.169  -2.790  0.00  0.00    -0.337 OA
ENDROOT
BRANCH   1  38
ATOM     38  C   UNL     1       2.488   4.846  -5.168  0.00  0.00    +0.027 C 
ATOM     39  C   UNL     1       2.607   5.946  -6.348  0.00  0.00    +0.002 C 
BRANCH  38  41
ATOM     40  C   UNL     1       0.539   4.640  -5.976  0.00  0.00    +0.000 C 
ATOM     41  C   UNL     1       0.873   4.974  -5.073  0.00  0.00    +0.002 C 
ENDBRANCH  38  41
ENDBRANCH   1  38
BRANCH  12  42
ATOM     42  O   UNL     1       4.586  12.613   1.118  0.00  0.00    -0.328 OA
BRANCH  42  43
ATOM     43  C   UNL     1       6.058  12.929   1.035  0.00  0.00    +0.238 C 
ATOM     44  O   UNL     1       6.244  13.428   2.470  0.00  0.00    -0.330 OA
ATOM     45  C   UNL     1       7.743  13.625   2.494  0.00  0.00    +0.147 C 
ATOM     46  C   UNL     1       7.957  12.022   2.774  0.00  0.00    +0.035 C 
ATOM     47  C   UNL     1       7.940  13.481   0.790  0.00  0.00    +0.172 C 
ATOM     48  C   UNL     1       7.305  15.071   0.605  0.00  0.00    +0.150 C 
ATOM     49  C   UNL     1       5.766  14.501   0.550  0.00  0.00    +0.093 C 
BRANCH  48  50
ATOM     50  O   UNL     1       7.407  15.005  -0.897  0.00  0.00    -0.351 OA
ATOM     51  C   UNL     1       6.400  15.880  -1.342  0.00  0.00    +0.174 C 
ENDBRANCH  48  50
BRANCH  47  52
ATOM     52  O   UNL     1       9.331  13.927   0.651  0.00  0.00    -0.328 OA
BRANCH  52  53
ATOM     53  C   UNL     1      10.109  12.871  -0.096  0.00  0.00    +0.238 C 
ATOM     54  O   UNL     1      11.268  12.842   0.903  0.00  0.00    -0.330 OA
ATOM     55  C   UNL     1      11.037  14.069   1.738  0.00  0.00    +0.150 C 
ATOM     56  C   UNL     1      12.306  13.703   2.702  0.00  0.00    +0.035 C 
ATOM     57  C   UNL     1      12.011  15.062   0.744  0.00  0.00    +0.206 C 
ATOM     58  O   UNL     1      11.621  16.272   1.531  0.00  0.00    -0.218 OA
ATOM     59  C   UNL     1      10.732  15.351  -0.349  0.00  0.00    +0.153 C 
ATOM     60  C   UNL     1      10.947  13.914  -1.091  0.00  0.00    +0.094 C 
BRANCH  59  61
ATOM     61  O   UNL     1      11.619  16.049  -1.341  0.00  0.00    -0.351 OA
ATOM     62  C   UNL     1      10.954  17.122  -1.854  0.00  0.00    +0.174 C 
ENDBRANCH  59  61
ENDBRANCH  52  53
ENDBRANCH  47  52
ENDBRANCH  42  43
ENDBRANCH  12  42
TORSDOF 8
ENDMDL
MODEL 2
REMARK VINA RESULT:      -2.1      3.540      9.914
REMARK  Name = 
REMARK  8 active torsions:
REMARK  status: ('A' for Active; 'I' for Inactive)
REMARK    1  A    between atoms: C_2  and  C_3
REMARK    2  A    between atoms: C_3  and  C_5
REMARK    3  A    between atoms: C_20  and  O_21
REMARK    4  A    between atoms: O_21  and  C_22
REMARK    5  A    between atoms: C_24  and  O_25
REMARK    6  A    between atoms: C_27  and  O_28
REMARK    7  A    between atoms: O_28  and  C_29
REMARK    8  A    between atoms: C_31  and  O_32
REMARK                            x       y       z     vdW  Elec       q    Type
REMARK                         _______ _______ _______ _____ _____    ______ ____
ROOT
ATOM      1  C   UNL     1       5.251  11.891   1.242  0.00  0.00    +0.117 C 
ATOM      2  C   UNL     1       5.233  13.181   0.132  0.00  0.00    +0.027 C 
ATOM      3  C   UNL     1       6.654  12.700  -0.484  0.00  0.00    +0.002 C 
ATOM      4  C   UNL     1       4.377  12.463  -1.039  0.00  0.00    +0.007 C 
ATOM      5  C   UNL     1       2.957  12.251  -0.496  0.00  0.00    +0.056 C 
ATOM      6  C   UNL     1       3.197  11.190   0.569  0.00  0.00    +0.190 C 
ATOM      7  O   UNL     1       4.112  10.471   0.150  0.00  0.00    -0.336 OA
ATOM      8  C   UNL     1       4.072   9.081  -0.354  0.00  0.00    +0.126 C 
ATOM      9  C   UNL     1       2.829   9.336  -1.430  0.00  0.00    +0.055 C 
ATOM     10  C   UNL     1       3.199   8.723  -2.670  0.00  0.00    -0.030 C 
ATOM     11  C   UNL     1       3.699   7.606  -3.115  0.00  0.00    -0.021 C 
ATOM     12  C   UNL     1       2.756   7.025  -4.303  0.00  0.00    +0.140 C 
ATOM     13  C   UNL     1       1.974   5.758  -3.448  0.00  0.00    +0.053 C 
ATOM     14  C   UNL     1       0.741   6.700  -3.097  0.00  0.00    -0.024 C 
ATOM     15  C   UNL     1      -0.061   5.882  -2.413  0.00  0.00    -0.005 C 
ATOM     16  C   UNL     1      -0.316   6.258  -1.092  0.00  0.00    -0.004 C 
ATOM     17  C   UNL     1      -0.054   7.339  -0.392  0.00  0.00    +0.016 C 
ATOM     18  C   UNL     1      -0.308   6.975   1.053  0.00  0.00    +0.185 C 
ATOM     19  C   UNL     1      -1.887   6.985   0.744  0.00  0.00    +0.182 C 
ATOM     20  C   UNL     1      -2.538   7.612   2.220  0.00  0.00    +0.200 C 
ATOM     21  C   UNL     1      -1.498   6.781   3.127  0.00  0.00    -0.015 C 
ATOM     22  C   UNL     1      -0.455   7.473   3.365  0.00  0.00    -0.019 C 
ATOM     23  C   UNL     1      -1.995   5.548   3.750  0.00  0.00    +0.029 C 
ATOM     24  O   UNL     1      -1.794   8.931   2.204  0.00  0.00    -0.216 OA
ATOM     25  O   UNL     1      -1.962   8.335   0.068  0.00  0.00    -0.346 OA
ATOM     26  O   UNL     1       0.107   5.776   1.422  0.00  0.00    -0.218 OA
ATOM     27  C   UNL     1       0.168   8.145   2.017  0.00  0.00    +0.154 C 
ATOM     28  C   UNL     1       1.583   7.460   2.363  0.00  0.00    +0.323 C 
ATOM     29  O   UNL     1       1.968   8.712   2.791  0.00  0.00    -0.452 OA
ATOM     30  C   UNL     1       2.992   9.476   1.975  0.00  0.00    +0.176 C 
ATOM     31  O   UNL     1       1.674   6.548   3.229  0.00  0.00    -0.250 OA
ATOM     32  C   UNL     1      -0.756   8.674  -0.269  0.00  0.00    +0.167 C 
ATOM     33  C   UNL     1       2.655   5.940  -1.997  0.00  0.00    +0.008 C 
ATOM     34  C   UNL     1       5.158   7.651  -3.544  0.00  0.00    +0.028 C 
ATOM     35  C   UNL     1       3.048   8.427   0.733  0.00  0.00    +0.074 C 
ATOM     36  C   UNL     1       1.998  10.522   1.152  0.00  0.00    +0.100 C 
ATOM     37  O   UNL     1       3.788  12.002   1.571  0.00  0.00    -0.337 OA
ENDROOT
BRANCH   1  38
ATOM     38  C   UNL     1       5.829  12.910   2.472  0.00  0.00    +0.027 C 
ATOM     39  C   UNL     1       7.367  12.445   2.294  0.00  0.00    +0.002 C 
BRANCH  38  41
ATOM     40  C   UNL     1       6.390  11.315   3.750  0.00  0.00    +0.000 C 
ATOM     41  C   UNL     1       5.563  11.909   3.721  0.00  0.00    +0.002 C 
ENDBRANCH  38  41
ENDBRANCH   1  38
BRANCH  12  42
ATOM     42  O   UNL     1       3.742   5.976  -4.726  0.00  0.00    -0.328 OA
BRANCH  42  43
ATOM     43  C   UNL     1       3.765   6.019  -6.232  0.00  0.00    +0.238 C 
ATOM     44  O   UNL     1       3.004   4.715  -6.489  0.00  0.00    -0.330 OA
ATOM     45  C   UNL     1       2.865   4.776  -7.993  0.00  0.00    +0.147 C 
ATOM     46  C   UNL     1       1.572   5.775  -7.841  0.00  0.00    +0.035 C 
ATOM     47  C   UNL     1       3.992   6.061  -8.196  0.00  0.00    +0.172 C 
ATOM     48  C   UNL     1       5.277   4.945  -7.931  0.00  0.00    +0.150 C 
ATOM     49  C   UNL     1       5.201   5.169  -6.307  0.00  0.00    +0.093 C 
BRANCH  48  50
ATOM     50  O   UNL     1       6.322   6.023  -8.054  0.00  0.00    -0.351 OA
ATOM     51  C   UNL     1       7.424   5.362  -8.624  0.00  0.00    +0.174 C 
ENDBRANCH  48  50
BRANCH  47  52
ATOM     52  O   UNL     1       4.154   6.036  -9.654  0.00  0.00    -0.328 OA
BRANCH  52  53
ATOM     53  C   UNL     1       4.096   7.452 -10.175  0.00  0.00    +0.238 C 
ATOM     54  O   UNL     1       3.085   7.134 -11.279  0.00  0.00    -0.330 OA
ATOM     55  C   UNL     1       3.083   5.633 -11.328  0.00  0.00    +0.150 C 
ATOM     56  C   UNL     1       1.905   5.630 -12.460  0.00  0.00    +0.035 C 
ATOM     57  C   UNL     1       4.304   5.563 -12.523  0.00  0.00    +0.206 C 
ATOM     58  O   UNL     1       4.357   4.073 -12.415  0.00  0.00    -0.218 OA
ATOM     59  C   UNL     1       5.551   5.699 -11.365  0.00  0.00    +0.153 C 
ATOM     60  C   UNL     1       5.364   7.316 -11.249  0.00  0.00    +0.094 C 
BRANCH  59  61
ATOM     61  O   UNL     1       6.623   5.850 -12.407  0.00  0.00    -0.351 OA
ATOM     62  C   UNL     1       7.790   5.342 -11.919  0.00  0.00    +0.174 C 
ENDBRANCH  59  61
ENDBRANCH  52  53
ENDBRANCH  47  52
ENDBRANCH  42  43
ENDBRANCH  12  42
TORSDOF 8
ENDMDL
MODEL 3
REMARK VINA RESULT:      -1.4      3.197     10.001
REMARK  Name = 
REMARK  8 active torsions:
REMARK  status: ('A' for Active; 'I' for Inactive)
REMARK    1  A    between atoms: C_2  and  C_3
REMARK    2  A    between atoms: C_3  and  C_5
REMARK    3  A    between atoms: C_20  and  O_21
REMARK    4  A    between atoms: O_21  and  C_22
REMARK    5  A    between atoms: C_24  and  O_25
REMARK    6  A    between atoms: C_27  and  O_28
REMARK    7  A    between atoms: O_28  and  C_29
REMARK    8  A    between atoms: C_31  and  O_32
REMARK                            x       y       z     vdW  Elec       q    Type
REMARK                         _______ _______ _______ _____ _____    ______ ____
ROOT
ATOM      1  C   UNL     1       5.268  11.727   1.609  0.00  0.00    +0.117 C 
ATOM      2  C   UNL     1       5.373  13.001   0.485  0.00  0.00    +0.027 C 
ATOM      3  C   UNL     1       6.806  12.449  -0.038  0.00  0.00    +0.002 C 
ATOM      4  C   UNL     1       4.558  12.305  -0.727  0.00  0.00    +0.007 C 
ATOM      5  C   UNL     1       3.101  12.163  -0.269  0.00  0.00    +0.056 C 
ATOM      6  C   UNL     1       3.228  11.108   0.821  0.00  0.00    +0.190 C 
ATOM      7  O   UNL     1       4.133  10.344   0.466  0.00  0.00    -0.336 OA
ATOM      8  C   UNL     1       4.062   8.949  -0.022  0.00  0.00    +0.126 C 
ATOM      9  C   UNL     1       2.898   9.243  -1.174  0.00  0.00    +0.055 C 
ATOM     10  C   UNL     1       3.314   8.597  -2.383  0.00  0.00    -0.030 C 
ATOM     11  C   UNL     1       3.789   7.453  -2.784  0.00  0.00    -0.021 C 
ATOM     12  C   UNL     1       2.893   6.898  -4.020  0.00  0.00    +0.140 C 
ATOM     13  C   UNL     1       2.006   5.678  -3.199  0.00  0.00    +0.053 C 
ATOM     14  C   UNL     1       0.797   6.678  -2.934  0.00  0.00    -0.024 C 
ATOM     15  C   UNL     1      -0.080   5.906  -2.291  0.00  0.00    -0.005 C 
ATOM     16  C   UNL     1      -0.396   6.312  -0.992  0.00  0.00    -0.004 C 
ATOM     17  C   UNL     1      -0.129   7.390  -0.290  0.00  0.00    +0.016 C 
ATOM     18  C   UNL     1      -0.485   7.058   1.141  0.00  0.00    +0.185 C 
ATOM     19  C   UNL     1      -2.040   7.134   0.737  0.00  0.00    +0.182 C 
ATOM     20  C   UNL     1      -2.750   7.809   2.163  0.00  0.00    +0.200 C 
ATOM     21  C   UNL     1      -1.805   6.947   3.142  0.00  0.00    -0.015 C 
ATOM     22  C   UNL     1      -0.748   7.595   3.434  0.00  0.00    -0.019 C 
ATOM     23  C   UNL     1      -2.392   5.746   3.748  0.00  0.00    +0.029 C 
ATOM     24  O   UNL     1      -1.948   9.094   2.178  0.00  0.00    -0.216 OA
ATOM     25  O   UNL     1      -2.014   8.476   0.042  0.00  0.00    -0.346 OA
ATOM     26  O   UNL     1      -0.147   5.847   1.549  0.00  0.00    -0.218 OA
ATOM     27  C   UNL     1      -0.015   8.220   2.119  0.00  0.00    +0.154 C 
ATOM     28  C   UNL     1       1.345   7.479   2.558  0.00  0.00    +0.323 C 
ATOM     29  O   UNL     1       1.758   8.719   2.993  0.00  0.00    -0.452 OA
ATOM     30  C   UNL     1       2.863   9.425   2.232  0.00  0.00    +0.176 C 
ATOM     31  O   UNL     1       1.343   6.576   3.438  0.00  0.00    -0.250 OA
ATOM     32  C   UNL     1      -0.776   8.757  -0.226  0.00  0.00    +0.167 C 
ATOM     33  C   UNL     1       2.606   5.850  -1.712  0.00  0.00    +0.008 C 
ATOM     34  C   UNL     1       5.272   7.428  -3.124  0.00  0.00    +0.028 C 
ATOM     35  C   UNL     1       2.946   8.356   1.008  0.00  0.00    +0.074 C 
ATOM     36  C   UNL     1       1.967  10.501   1.338  0.00  0.00    +0.100 C 
ATOM     37  O   UNL     1       3.794  11.908   1.848  0.00  0.00    -0.337 OA
ENDROOT
BRANCH   1  38
ATOM     38  C   UNL     1       5.816  12.738   2.860  0.00  0.00    +0.027 C 
ATOM     39  C   UNL     1       6.392  11.517   3.750  0.00  0.00    +0.002 C 
BRANCH  38  41
ATOM     40  C   UNL     1       4.224  13.820   3.748  0.00  0.00    +0.000 C 
ATOM     41  C   UNL     1       4.425  12.822   3.690  0.00  0.00    +0.002 C 
ENDBRANCH  38  41
ENDBRANCH   1  38
BRANCH  12  42
ATOM     42  O   UNL     1       3.855   5.800  -4.370  0.00  0.00    -0.328 OA
BRANCH  42  43
ATOM     43  C   UNL     1       3.774   5.646  -5.867  0.00  0.00    +0.238 C 
ATOM     44  O   UNL     1       5.064   6.390  -6.223  0.00  0.00    -0.330 OA
ATOM     45  C   UNL     1       5.115   6.141  -7.714  0.00  0.00    +0.147 C 
ATOM     46  C   UNL     1       5.766   4.657  -7.452  0.00  0.00    +0.035 C 
ATOM     47  C   UNL     1       3.502   5.552  -7.823  0.00  0.00    +0.172 C 
ATOM     48  C   UNL     1       2.926   7.169  -7.681  0.00  0.00    +0.150 C 
ATOM     49  C   UNL     1       2.928   7.076  -6.042  0.00  0.00    +0.093 C 
BRANCH  48  50
ATOM     50  O   UNL     1       1.486   6.728  -7.726  0.00  0.00    -0.351 OA
ATOM     51  C   UNL     1       0.912   7.333  -6.595  0.00  0.00    +0.174 C 
ENDBRANCH  48  50
BRANCH  47  52
ATOM     52  O   UNL     1       3.332   5.528  -9.281  0.00  0.00    -0.328 OA
BRANCH  52  53
ATOM     53  C   UNL     1       3.182   4.095  -9.730  0.00  0.00    +0.238 C 
ATOM     54  O   UNL     1       4.014   4.279 -11.002  0.00  0.00    -0.330 OA
ATOM     55  C   UNL     1       4.131   5.771 -11.129  0.00  0.00    +0.150 C 
ATOM     56  C   UNL     1       5.096   5.626 -12.440  0.00  0.00    +0.035 C 
ATOM     57  C   UNL     1       2.735   5.907 -12.105  0.00  0.00    +0.206 C 
ATOM     58  O   UNL     1       2.825   7.400 -12.066  0.00  0.00    -0.218 OA
ATOM     59  C   UNL     1       1.697   5.927 -10.750  0.00  0.00    +0.153 C 
ATOM     60  C   UNL     1       1.766   4.306 -10.584  0.00  0.00    +0.094 C 
BRANCH  59  61
ATOM     61  O   UNL     1       0.454   5.836 -11.589  0.00  0.00    -0.351 OA
ATOM     62  C   UNL     1      -0.522   5.212 -10.870  0.00  0.00    +0.174 C 
ENDBRANCH  59  61
ENDBRANCH  52  53
ENDBRANCH  47  52
ENDBRANCH  42  43
ENDBRANCH  12  42
TORSDOF 8
ENDMDL
MODEL 4
REMARK VINA RESULT:      -0.1      0.904      2.200
REMARK  Name = 
REMARK  8 active torsions:
REMARK  status: ('A' for Active; 'I' for Inactive)
REMARK    1  A    between atoms: C_2  and  C_3
REMARK    2  A    between atoms: C_3  and  C_5
REMARK    3  A    between atoms: C_20  and  O_21
REMARK    4  A    between atoms: O_21  and  C_22
REMARK    5  A    between atoms: C_24  and  O_25
REMARK    6  A    between atoms: C_27  and  O_28
REMARK    7  A    between atoms: O_28  and  C_29
REMARK    8  A    between atoms: C_31  and  O_32
REMARK                            x       y       z     vdW  Elec       q    Type
REMARK                         _______ _______ _______ _____ _____    ______ ____
ROOT
ATOM      1  C   UNL     1       3.190   6.398  -3.987  0.00  0.00    +0.117 C 
ATOM      2  C   UNL     1       4.789   5.830  -3.853  0.00  0.00    +0.027 C 
ATOM      3  C   UNL     1       5.328   7.069  -4.749  0.00  0.00    +0.002 C 
ATOM      4  C   UNL     1       5.172   6.551  -2.457  0.00  0.00    +0.007 C 
ATOM      5  C   UNL     1       4.317   5.900  -1.362  0.00  0.00    +0.056 C 
ATOM      6  C   UNL     1       2.926   6.395  -1.730  0.00  0.00    +0.190 C 
ATOM      7  O   UNL     1       3.070   7.531  -2.196  0.00  0.00    -0.336 OA
ATOM      8  C   UNL     1       2.716   8.846  -1.618  0.00  0.00    +0.126 C 
ATOM      9  C   UNL     1       3.469   8.585  -0.157  0.00  0.00    +0.055 C 
ATOM     10  C   UNL     1       4.223   9.761   0.156  0.00  0.00    -0.030 C 
ATOM     11  C   UNL     1       4.084  11.056   0.166  0.00  0.00    -0.021 C 
ATOM     12  C   UNL     1       4.538  11.639   1.614  0.00  0.00    +0.140 C 
ATOM     13  C   UNL     1       2.990  11.965   2.283  0.00  0.00    +0.053 C 
ATOM     14  C   UNL     1       2.956  10.547   3.002  0.00  0.00    -0.024 C 
ATOM     15  C   UNL     1       1.788  10.578   3.645  0.00  0.00    -0.005 C 
ATOM     16  C   UNL     1       0.863   9.605   3.257  0.00  0.00    -0.004 C 
ATOM     17  C   UNL     1       0.935   8.546   2.481  0.00  0.00    +0.016 C 
ATOM     18  C   UNL     1      -0.491   8.115   2.226  0.00  0.00    +0.185 C 
ATOM     19  C   UNL     1      -0.566   7.583   3.743  0.00  0.00    +0.182 C 
ATOM     20  C   UNL     1      -1.563   6.178   3.582  0.00  0.00    +0.200 C 
ATOM     21  C   UNL     1      -2.534   6.889   2.510  0.00  0.00    -0.015 C 
ATOM     22  C   UNL     1      -2.132   6.665   1.322  0.00  0.00    -0.019 C 
ATOM     23  C   UNL     1      -3.813   7.405   3.010  0.00  0.00    +0.029 C 
ATOM     24  O   UNL     1      -0.679   5.435   2.602  0.00  0.00    -0.216 OA
ATOM     25  O   UNL     1       0.700   6.757   3.741  0.00  0.00    -0.346 OA
ATOM     26  O   UNL     1      -1.354   9.092   2.012  0.00  0.00    -0.218 OA
ATOM     27  C   UNL     1      -0.540   6.961   1.135  0.00  0.00    +0.154 C 
ATOM     28  C   UNL     1      -0.896   7.951  -0.084  0.00  0.00    +0.323 C 
ATOM     29  O   UNL     1      -0.484   6.923  -0.903  0.00  0.00    -0.452 OA
ATOM     30  C   UNL     1       0.809   7.084  -1.678  0.00  0.00    +0.176 C 
ATOM     31  O   UNL     1      -2.076   8.350  -0.280  0.00  0.00    -0.250 OA
ATOM     32  C   UNL     1       1.412   7.130   2.723  0.00  0.00    +0.167 C 
ATOM     33  C   UNL     1       2.052  11.482   1.063  0.00  0.00    +0.008 C 
ATOM     34  C   UNL     1       4.764  11.810  -0.967  0.00  0.00    +0.028 C 
ATOM     35  C   UNL     1       1.262   8.481  -0.977  0.00  0.00    +0.074 C 
ATOM     36  C   UNL     1       1.837   6.184  -0.733  0.00  0.00    +0.100 C 
ATOM     37  O   UNL     1       2.675   5.560  -2.850  0.00  0.00    -0.337 OA
ENDROOT
BRANCH   1  38
ATOM     38  C   UNL     1       2.864   5.293  -5.236  0.00  0.00    +0.027 C 
ATOM     39  C   UNL     1       2.600   6.444  -6.341  0.00  0.00    +0.002 C 
BRANCH  38  41
ATOM     40  C   UNL     1       0.930   4.592  -5.747  0.00  0.00    +0.000 C 
ATOM     41  C   UNL     1       1.285   5.084  -4.928  0.00  0.00    +0.002 C 
ENDBRANCH  38  41
ENDBRANCH   1  38
BRANCH  12  42
ATOM     42  O   UNL     1       4.520  13.071   1.168  0.00  0.00    -0.328 OA
BRANCH  42  43
ATOM     43  C   UNL     1       5.962  13.509   1.137  0.00  0.00    +0.238 C 
ATOM     44  O   UNL     1       6.329  12.918  -0.227  0.00  0.00    -0.330 OA
ATOM     45  C   UNL     1       7.735  13.454  -0.382  0.00  0.00    +0.147 C 
ATOM     46  C   UNL     1       7.137  14.891  -0.903  0.00  0.00    +0.035 C 
ATOM     47  C   UNL     1       7.881  13.966   1.254  0.00  0.00    +0.172 C 
ATOM     48  C   UNL     1       8.101  12.324   1.725  0.00  0.00    +0.150 C 
ATOM     49  C   UNL     1       6.481  12.098   1.863  0.00  0.00    +0.093 C 
BRANCH  48  50
ATOM     50  O   UNL     1       8.197  12.689   3.184  0.00  0.00    -0.351 OA
ATOM     51  C   UNL     1       9.086  11.737   3.712  0.00  0.00    +0.174 C 
ENDBRANCH  48  50
BRANCH  47  52
ATOM     52  O   UNL     1       9.317  14.264   1.305  0.00  0.00    -0.328 OA
BRANCH  52  53
ATOM     53  C   UNL     1       9.516  15.587   2.005  0.00  0.00    +0.238 C 
ATOM     54  O   UNL     1      10.330  16.206   0.865  0.00  0.00    -0.330 OA
ATOM     55  C   UNL     1      10.667  15.027  -0.002  0.00  0.00    +0.150 C 
ATOM     56  C   UNL     1      11.399  15.991  -1.100  0.00  0.00    +0.035 C 
ATOM     57  C   UNL     1      12.148  14.724   0.797  0.00  0.00    +0.206 C 
ATOM     58  O   UNL     1      12.349  13.476  -0.001  0.00  0.00    -0.218 OA
ATOM     59  C   UNL     1      11.384  13.823   2.030  0.00  0.00    +0.153 C 
ATOM     60  C   UNL     1      10.910  15.169   2.819  0.00  0.00    +0.094 C 
BRANCH  59  61
ATOM     61  O   UNL     1      12.636  13.723   2.855  0.00  0.00    -0.351 OA
ATOM     62  C   UNL     1      12.499  12.703   3.749  0.00  0.00    +0.174 C 
ENDBRANCH  59  61
ENDBRANCH  52  53
ENDBRANCH  47  52
ENDBRANCH  42  43
ENDBRANCH  12  42
TORSDOF 8
ENDMDL
