MODEL 1
REMARK VINA RESULT:      -7.2      0.000      0.000
REMARK  Name = 
REMARK  2 active torsions:
REMARK  status: ('A' for Active; 'I' for Inactive)
REMARK    1  A    between atoms: C_2  and  C_3
REMARK    2  A    between atoms: C_21  and  C_22
REMARK                            x       y       z     vdW  Elec       q    Type
REMARK                         _______ _______ _______ _____ _____    ______ ____
ROOT
ATOM      1  C   UNL     1       0.307   5.463  -5.863  0.00  0.00    +0.180 C 
ATOM      2  C   UNL     1       1.283   5.656  -7.029  0.00  0.00    +0.037 C 
ATOM      3  C   UNL     1       1.769   4.119  -6.928  0.00  0.00    +0.003 C 
ATOM      4  C   UNL     1       3.124   4.127  -7.941  0.00  0.00    +0.001 C 
ATOM      5  C   UNL     1       2.733   5.488  -8.842  0.00  0.00    +0.004 C 
ATOM      6  C   UNL     1       1.332   4.867  -9.331  0.00  0.00    +0.000 C 
ATOM      7  C   UNL     1       3.705   4.966 -10.113  0.00  0.00    +0.019 C 
ATOM      8  C   UNL     1       4.971   5.585  -9.365  0.00  0.00    -0.042 C 
ATOM      9  C   UNL     1       5.832   6.278 -10.030  0.00  0.00    +0.029 C 
ATOM     10  C   UNL     1       5.581   7.003 -11.281  0.00  0.00    +0.173 C 
ATOM     11  C   UNL     1       4.411   6.433 -12.029  0.00  0.00    +0.069 C 
ATOM     12  O   UNL     1       5.660   8.268 -11.362  0.00  0.00    -0.291 OA
ATOM     13  C   UNL     1       5.323   5.019  -8.049  0.00  0.00    +0.022 C 
ATOM     14  C   UNL     1       3.355   6.317 -10.948  0.00  0.00    +0.012 C 
ATOM     15  C   UNL     1       4.171   4.974  -7.060  0.00  0.00    +0.004 C 
ATOM     16  C   UNL     1       2.490   4.445  -5.509  0.00  0.00    +0.004 C 
ATOM     17  C   UNL     1       0.516   5.675  -8.311  0.00  0.00    +0.003 C 
ATOM     18  C   UNL     1       1.276   5.053  -4.804  0.00  0.00    +0.043 C 
ATOM     19  O   UNL     1      -0.519   4.427  -6.239  0.00  0.00    -0.212 OA
ENDROOT
BRANCH   1  21
ATOM     20  C   UNL     1      -0.903   7.563  -5.265  0.00  0.00    -0.012 C 
ATOM     21  C   UNL     1      -0.379   6.723  -5.614  0.00  0.00    -0.049 C 
ENDBRANCH   1  21
BRANCH   2  22
ATOM     22  C   UNL     1       2.201   6.631  -6.659  0.00  0.00    +0.003 C 
ATOM     23  C   UNL     1       2.465   7.925  -7.237  0.00  0.00    +0.000 C 
ENDBRANCH   2  22
TORSDOF 2
ENDMDL
MODEL 2
REMARK VINA RESULT:      -7.1      2.476      3.533
REMARK  Name = 
REMARK  2 active torsions:
REMARK  status: ('A' for Active; 'I' for Inactive)
REMARK    1  A    between atoms: C_2  and  C_3
REMARK    2  A    between atoms: C_21  and  C_22
REMARK                            x       y       z     vdW  Elec       q    Type
REMARK                         _______ _______ _______ _____ _____    ______ ____
ROOT
ATOM      1  C   UNL     1       2.442   5.675  -3.817  0.00  0.00    +0.180 C 
ATOM      2  C   UNL     1       2.054   5.612  -5.299  0.00  0.00    +0.037 C 
ATOM      3  C   UNL     1       3.606   5.581  -5.744  0.00  0.00    +0.003 C 
ATOM      4  C   UNL     1       3.484   5.828  -7.413  0.00  0.00    +0.001 C 
ATOM      5  C   UNL     1       1.891   5.336  -7.604  0.00  0.00    +0.004 C 
ATOM      6  C   UNL     1       2.179   3.874  -6.999  0.00  0.00    +0.000 C 
ATOM      7  C   UNL     1       2.156   4.999  -9.232  0.00  0.00    +0.019 C 
ATOM      8  C   UNL     1       1.925   6.542  -9.563  0.00  0.00    -0.042 C 
ATOM      9  C   UNL     1       1.184   6.878 -10.564  0.00  0.00    +0.029 C 
ATOM     10  C   UNL     1       0.118   6.069 -11.165  0.00  0.00    +0.173 C 
ATOM     11  C   UNL     1       0.314   4.604 -10.898  0.00  0.00    +0.069 C 
ATOM     12  O   UNL     1      -1.100   6.424 -11.142  0.00  0.00    -0.291 OA
ATOM     13  C   UNL     1       2.869   7.510  -8.973  0.00  0.00    +0.022 C 
ATOM     14  C   UNL     1       0.595   4.577  -9.408  0.00  0.00    +0.012 C 
ATOM     15  C   UNL     1       3.045   7.375  -7.471  0.00  0.00    +0.004 C 
ATOM     16  C   UNL     1       3.774   7.120  -5.254  0.00  0.00    +0.004 C 
ATOM     17  C   UNL     1       1.591   4.230  -5.625  0.00  0.00    +0.003 C 
ATOM     18  C   UNL     1       3.241   6.936  -3.831  0.00  0.00    +0.043 C 
ATOM     19  O   UNL     1       3.226   4.566  -3.592  0.00  0.00    -0.212 OA
ENDROOT
BRANCH   1  21
ATOM     20  C   UNL     1       0.432   5.636  -2.336  0.00  0.00    -0.012 C 
ATOM     21  C   UNL     1       1.226   5.727  -3.018  0.00  0.00    -0.049 C 
ENDBRANCH   1  21
BRANCH   2  22
ATOM     22  C   UNL     1       1.337   6.762  -5.601  0.00  0.00    +0.003 C 
ATOM     23  C   UNL     1      -0.087   6.981  -5.664  0.00  0.00    +0.000 C 
ENDBRANCH   2  22
TORSDOF 2
ENDMDL
MODEL 3
REMARK VINA RESULT:      -7.1      2.375      5.980
REMARK  Name = 
REMARK  2 active torsions:
REMARK  status: ('A' for Active; 'I' for Inactive)
REMARK    1  A    between atoms: C_2  and  C_3
REMARK    2  A    between atoms: C_21  and  C_22
REMARK                            x       y       z     vdW  Elec       q    Type
REMARK                         _______ _______ _______ _____ _____    ______ ____
ROOT
ATOM      1  C   UNL     1       2.292   5.740  -9.061  0.00  0.00    +0.180 C 
ATOM      2  C   UNL     1       2.240   5.771  -7.530  0.00  0.00    +0.037 C 
ATOM      3  C   UNL     1       3.392   6.902  -7.475  0.00  0.00    +0.003 C 
ATOM      4  C   UNL     1       3.774   6.915  -5.827  0.00  0.00    +0.001 C 
ATOM      5  C   UNL     1       2.349   6.241  -5.253  0.00  0.00    +0.004 C 
ATOM      6  C   UNL     1       1.439   7.396  -5.904  0.00  0.00    +0.000 C 
ATOM      7  C   UNL     1       2.595   6.930  -3.737  0.00  0.00    +0.019 C 
ATOM      8  C   UNL     1       3.552   5.709  -3.365  0.00  0.00    -0.042 C 
ATOM      9  C   UNL     1       3.441   5.135  -2.215  0.00  0.00    +0.029 C 
ATOM     10  C   UNL     1       2.241   5.111  -1.370  0.00  0.00    +0.173 C 
ATOM     11  C   UNL     1       1.325   6.262  -1.672  0.00  0.00    +0.069 C 
ATOM     12  O   UNL     1       1.623   4.036  -1.098  0.00  0.00    -0.291 OA
ATOM     13  C   UNL     1       4.776   5.539  -4.171  0.00  0.00    +0.022 C 
ATOM     14  C   UNL     1       1.238   6.224  -3.185  0.00  0.00    +0.012 C 
ATOM     15  C   UNL     1       4.539   5.508  -5.670  0.00  0.00    +0.004 C 
ATOM     16  C   UNL     1       4.480   5.815  -7.997  0.00  0.00    +0.004 C 
ATOM     17  C   UNL     1       1.023   6.520  -7.096  0.00  0.00    +0.003 C 
ATOM     18  C   UNL     1       3.723   5.360  -9.247  0.00  0.00    +0.043 C 
ATOM     19  O   UNL     1       2.042   7.032  -9.466  0.00  0.00    -0.212 OA
ENDROOT
BRANCH   1  21
ATOM     20  C   UNL     1       0.610   4.170 -10.030  0.00  0.00    -0.012 C 
ATOM     21  C   UNL     1       1.328   4.760  -9.542  0.00  0.00    -0.049 C 
ENDBRANCH   1  21
BRANCH   2  22
ATOM     22  C   UNL     1       2.580   4.507  -7.067  0.00  0.00    +0.003 C 
ATOM     23  C   UNL     1       1.796   3.543  -6.335  0.00  0.00    +0.000 C 
ENDBRANCH   2  22
TORSDOF 2
ENDMDL
MODEL 4
REMARK VINA RESULT:      -7.0      1.320      5.889
REMARK  Name = 
REMARK  2 active torsions:
REMARK  status: ('A' for Active; 'I' for Inactive)
REMARK    1  A    between atoms: C_2  and  C_3
REMARK    2  A    between atoms: C_21  and  C_22
REMARK                            x       y       z     vdW  Elec       q    Type
REMARK                         _______ _______ _______ _____ _____    ______ ____
ROOT
ATOM      1  C   UNL     1       3.465   6.125 -10.543  0.00  0.00    +0.180 C 
ATOM      2  C   UNL     1       2.620   6.185  -9.266  0.00  0.00    +0.037 C 
ATOM      3  C   UNL     1       3.939   6.049  -8.342  0.00  0.00    +0.003 C 
ATOM      4  C   UNL     1       3.256   5.769  -6.820  0.00  0.00    +0.001 C 
ATOM      5  C   UNL     1       1.736   6.410  -7.125  0.00  0.00    +0.004 C 
ATOM      6  C   UNL     1       2.328   7.853  -7.517  0.00  0.00    +0.000 C 
ATOM      7  C   UNL     1       1.481   6.674  -5.482  0.00  0.00    +0.019 C 
ATOM      8  C   UNL     1       1.025   5.152  -5.335  0.00  0.00    -0.042 C 
ATOM      9  C   UNL     1      -0.028   4.863  -4.648  0.00  0.00    +0.029 C 
ATOM     10  C   UNL     1      -1.160   5.757  -4.377  0.00  0.00    +0.173 C 
ATOM     11  C   UNL     1      -0.764   7.202  -4.480  0.00  0.00    +0.069 C 
ATOM     12  O   UNL     1      -2.329   5.524  -4.813  0.00  0.00    -0.291 OA
ATOM     13  C   UNL     1       2.025   4.113  -5.644  0.00  0.00    +0.022 C 
ATOM     14  C   UNL     1      -0.010   7.243  -5.795  0.00  0.00    +0.012 C 
ATOM     15  C   UNL     1       2.694   4.272  -6.998  0.00  0.00    +0.004 C 
ATOM     16  C   UNL     1       4.127   4.516  -8.841  0.00  0.00    +0.004 C 
ATOM     17  C   UNL     1       2.194   7.596  -9.026  0.00  0.00    +0.003 C 
ATOM     18  C   UNL     1       4.106   4.792 -10.347  0.00  0.00    +0.043 C 
ATOM     19  O   UNL     1       4.370   7.157 -10.438  0.00  0.00    -0.212 OA
ENDROOT
BRANCH   1  21
ATOM     20  C   UNL     1       2.094   6.293 -12.624  0.00  0.00    -0.012 C 
ATOM     21  C   UNL     1       2.577   6.216 -11.694  0.00  0.00    -0.049 C 
ENDBRANCH   1  21
BRANCH   2  22
ATOM     22  C   UNL     1       1.750   5.103  -9.279  0.00  0.00    +0.003 C 
ATOM     23  C   UNL     1       0.344   5.045  -9.594  0.00  0.00    +0.000 C 
ENDBRANCH   2  22
TORSDOF 2
ENDMDL
MODEL 5
REMARK VINA RESULT:      -7.0      2.391      5.127
REMARK  Name = 
REMARK  2 active torsions:
REMARK  status: ('A' for Active; 'I' for Inactive)
REMARK    1  A    between atoms: C_2  and  C_3
REMARK    2  A    between atoms: C_21  and  C_22
REMARK                            x       y       z     vdW  Elec       q    Type
REMARK                         _______ _______ _______ _____ _____    ______ ____
ROOT
ATOM      1  C   UNL     1       1.055   5.237 -10.380  0.00  0.00    +0.180 C 
ATOM      2  C   UNL     1       1.720   5.364  -9.005  0.00  0.00    +0.037 C 
ATOM      3  C   UNL     1       0.417   4.747  -8.275  0.00  0.00    +0.003 C 
ATOM      4  C   UNL     1       0.761   5.063  -6.649  0.00  0.00    +0.001 C 
ATOM      5  C   UNL     1       2.424   5.229  -6.791  0.00  0.00    +0.004 C 
ATOM      6  C   UNL     1       2.606   3.755  -7.408  0.00  0.00    +0.000 C 
ATOM      7  C   UNL     1       2.633   4.855  -5.163  0.00  0.00    +0.019 C 
ATOM      8  C   UNL     1       2.315   6.376  -4.799  0.00  0.00    -0.042 C 
ATOM      9  C   UNL     1       3.051   6.996  -3.940  0.00  0.00    +0.029 C 
ATOM     10  C   UNL     1       4.441   6.676  -3.597  0.00  0.00    +0.173 C 
ATOM     11  C   UNL     1       4.773   5.243  -3.901  0.00  0.00    +0.069 C 
ATOM     12  O   UNL     1       5.401   7.473  -3.832  0.00  0.00    -0.291 OA
ATOM     13  C   UNL     1       0.977   6.889  -5.146  0.00  0.00    +0.022 C 
ATOM     14  C   UNL     1       4.238   5.074  -5.310  0.00  0.00    +0.012 C 
ATOM     15  C   UNL     1       0.575   6.660  -6.593  0.00  0.00    +0.004 C 
ATOM     16  C   UNL     1      -0.420   6.090  -8.641  0.00  0.00    +0.004 C 
ATOM     17  C   UNL     1       2.731   4.277  -8.848  0.00  0.00    +0.003 C 
ATOM     18  C   UNL     1      -0.147   6.091 -10.147  0.00  0.00    +0.043 C 
ATOM     19  O   UNL     1       0.728   3.906 -10.512  0.00  0.00    -0.212 OA
ENDROOT
BRANCH   1  21
ATOM     20  C   UNL     1       2.511   6.041 -12.243  0.00  0.00    -0.012 C 
ATOM     21  C   UNL     1       1.976   5.735 -11.392  0.00  0.00    -0.049 C 
ENDBRANCH   1  21
BRANCH   2  22
ATOM     22  C   UNL     1       1.985   6.709  -8.783  0.00  0.00    +0.003 C 
ATOM     23  C   UNL     1       3.232   7.432  -8.832  0.00  0.00    +0.000 C 
ENDBRANCH   2  22
TORSDOF 2
ENDMDL
MODEL 6
REMARK VINA RESULT:      -6.9      2.474      4.155
REMARK  Name = 
REMARK  2 active torsions:
REMARK  status: ('A' for Active; 'I' for Inactive)
REMARK    1  A    between atoms: C_2  and  C_3
REMARK    2  A    between atoms: C_21  and  C_22
REMARK                            x       y       z     vdW  Elec       q    Type
REMARK                         _______ _______ _______ _____ _____    ______ ____
ROOT
ATOM      1  C   UNL     1       2.713   6.192  -6.644  0.00  0.00    +0.180 C 
ATOM      2  C   UNL     1       2.603   6.010  -8.162  0.00  0.00    +0.037 C 
ATOM      3  C   UNL     1       1.390   7.074  -8.241  0.00  0.00    +0.003 C 
ATOM      4  C   UNL     1       0.839   6.840  -9.823  0.00  0.00    +0.001 C 
ATOM      5  C   UNL     1       2.232   6.152 -10.455  0.00  0.00    +0.004 C 
ATOM      6  C   UNL     1       3.139   7.423 -10.070  0.00  0.00    +0.000 C 
ATOM      7  C   UNL     1       1.792   6.611 -12.014  0.00  0.00    +0.019 C 
ATOM      8  C   UNL     1       0.872   5.312 -12.109  0.00  0.00    -0.042 C 
ATOM      9  C   UNL     1       0.895   4.588 -13.176  0.00  0.00    +0.029 C 
ATOM     10  C   UNL     1       1.999   4.495 -14.138  0.00  0.00    +0.173 C 
ATOM     11  C   UNL     1       2.876   5.713 -14.097  0.00  0.00    +0.069 C 
ATOM     12  O   UNL     1       2.645   3.419 -14.330  0.00  0.00    -0.291 OA
ATOM     13  C   UNL     1      -0.251   5.205 -11.158  0.00  0.00    +0.022 C 
ATOM     14  C   UNL     1       3.122   5.892 -12.612  0.00  0.00    +0.012 C 
ATOM     15  C   UNL     1       0.143   5.395  -9.703  0.00  0.00    +0.004 C 
ATOM     16  C   UNL     1       0.425   6.026  -7.460  0.00  0.00    +0.004 C 
ATOM     17  C   UNL     1       3.725   6.740  -8.825  0.00  0.00    +0.003 C 
ATOM     18  C   UNL     1       1.333   5.782  -6.251  0.00  0.00    +0.043 C 
ATOM     19  O   UNL     1       2.931   7.537  -6.447  0.00  0.00    -0.212 OA
ENDROOT
BRANCH   1  21
ATOM     20  C   UNL     1       4.555   4.831  -5.649  0.00  0.00    -0.012 C 
ATOM     21  C   UNL     1       3.775   5.329  -6.146  0.00  0.00    -0.049 C 
ENDBRANCH   1  21
BRANCH   2  22
ATOM     22  C   UNL     1       2.289   4.680  -8.410  0.00  0.00    +0.003 C 
ATOM     23  C   UNL     1       3.127   3.593  -8.851  0.00  0.00    +0.000 C 
ENDBRANCH   2  22
TORSDOF 2
ENDMDL
MODEL 7
REMARK VINA RESULT:      -6.8      2.290      3.468
REMARK  Name = 
REMARK  2 active torsions:
REMARK  status: ('A' for Active; 'I' for Inactive)
REMARK    1  A    between atoms: C_2  and  C_3
REMARK    2  A    between atoms: C_21  and  C_22
REMARK                            x       y       z     vdW  Elec       q    Type
REMARK                         _______ _______ _______ _____ _____    ______ ____
ROOT
ATOM      1  C   UNL     1       3.543   5.573  -4.552  0.00  0.00    +0.180 C 
ATOM      2  C   UNL     1       2.882   5.520  -5.934  0.00  0.00    +0.037 C 
ATOM      3  C   UNL     1       4.215   4.883  -6.589  0.00  0.00    +0.003 C 
ATOM      4  C   UNL     1       3.869   5.003  -8.240  0.00  0.00    +0.001 C 
ATOM      5  C   UNL     1       2.199   5.112  -8.121  0.00  0.00    +0.004 C 
ATOM      6  C   UNL     1       2.076   3.708  -7.346  0.00  0.00    +0.000 C 
ATOM      7  C   UNL     1       2.016   4.554  -9.698  0.00  0.00    +0.019 C 
ATOM      8  C   UNL     1       2.272   6.037 -10.226  0.00  0.00    -0.042 C 
ATOM      9  C   UNL     1       1.516   6.527 -11.149  0.00  0.00    +0.029 C 
ATOM     10  C   UNL     1       0.143   6.112 -11.458  0.00  0.00    +0.173 C 
ATOM     11  C   UNL     1      -0.130   4.708 -10.998  0.00  0.00    +0.069 C 
ATOM     12  O   UNL     1      -0.851   6.888 -11.313  0.00  0.00    -0.291 OA
ATOM     13  C   UNL     1       3.585   6.643  -9.935  0.00  0.00    +0.022 C 
ATOM     14  C   UNL     1       0.403   4.717  -9.579  0.00  0.00    +0.012 C 
ATOM     15  C   UNL     1       3.987   6.591  -8.471  0.00  0.00    +0.004 C 
ATOM     16  C   UNL     1       4.992   6.292  -6.371  0.00  0.00    +0.004 C 
ATOM     17  C   UNL     1       1.919   4.379  -5.972  0.00  0.00    +0.003 C 
ATOM     18  C   UNL     1       4.709   6.447  -4.875  0.00  0.00    +0.043 C 
ATOM     19  O   UNL     1       3.926   4.279  -4.274  0.00  0.00    -0.212 OA
ENDROOT
BRANCH   1  21
ATOM     20  C   UNL     1       1.922   6.382  -2.833  0.00  0.00    -0.012 C 
ATOM     21  C   UNL     1       2.595   6.139  -3.602  0.00  0.00    -0.049 C 
ENDBRANCH   1  21
BRANCH   2  22
ATOM     22  C   UNL     1       2.562   6.820  -6.303  0.00  0.00    +0.003 C 
ATOM     23  C   UNL     1       1.279   7.473  -6.385  0.00  0.00    +0.000 C 
ENDBRANCH   2  22
TORSDOF 2
ENDMDL
MODEL 8
REMARK VINA RESULT:      -6.7      1.851      3.518
REMARK  Name = 
REMARK  2 active torsions:
REMARK  status: ('A' for Active; 'I' for Inactive)
REMARK    1  A    between atoms: C_2  and  C_3
REMARK    2  A    between atoms: C_21  and  C_22
REMARK                            x       y       z     vdW  Elec       q    Type
REMARK                         _______ _______ _______ _____ _____    ______ ____
ROOT
ATOM      1  C   UNL     1       0.861   5.672  -7.633  0.00  0.00    +0.180 C 
ATOM      2  C   UNL     1       2.069   5.798  -8.569  0.00  0.00    +0.037 C 
ATOM      3  C   UNL     1       1.281   6.853  -9.506  0.00  0.00    +0.003 C 
ATOM      4  C   UNL     1       2.305   6.940 -10.849  0.00  0.00    +0.001 C 
ATOM      5  C   UNL     1       3.709   6.398 -10.107  0.00  0.00    +0.004 C 
ATOM      6  C   UNL     1       3.682   7.569  -9.005  0.00  0.00    +0.000 C 
ATOM      7  C   UNL     1       4.658   7.160 -11.271  0.00  0.00    +0.019 C 
ATOM      8  C   UNL     1       4.446   5.903 -12.230  0.00  0.00    -0.042 C 
ATOM      9  C   UNL     1       5.452   5.409 -12.869  0.00  0.00    +0.029 C 
ATOM     10  C   UNL     1       6.863   5.515 -12.481  0.00  0.00    +0.173 C 
ATOM     11  C   UNL     1       7.109   6.703 -11.596  0.00  0.00    +0.069 C 
ATOM     12  O   UNL     1       7.559   4.502 -12.164  0.00  0.00    -0.291 OA
ATOM     13  C   UNL     1       3.067   5.604 -12.659  0.00  0.00    +0.022 C 
ATOM     14  C   UNL     1       6.004   6.580 -10.566  0.00  0.00    +0.012 C 
ATOM     15  C   UNL     1       2.067   5.498 -11.521  0.00  0.00    +0.004 C 
ATOM     16  C   UNL     1       0.288   5.666 -10.000  0.00  0.00    +0.004 C 
ATOM     17  C   UNL     1       3.107   6.651  -7.915  0.00  0.00    +0.003 C 
ATOM     18  C   UNL     1      -0.154   5.187  -8.614  0.00  0.00    +0.043 C 
ATOM     19  O   UNL     1       0.593   6.951  -7.199  0.00  0.00    -0.212 OA
ENDROOT
BRANCH   1  21
ATOM     20  C   UNL     1       1.390   4.192  -5.693  0.00  0.00    -0.012 C 
ATOM     21  C   UNL     1       1.189   4.730  -6.572  0.00  0.00    -0.049 C 
ENDBRANCH   1  21
BRANCH   2  22
ATOM     22  C   UNL     1       2.322   4.545  -9.110  0.00  0.00    +0.003 C 
ATOM     23  C   UNL     1       3.358   3.591  -8.801  0.00  0.00    +0.000 C 
ENDBRANCH   2  22
TORSDOF 2
ENDMDL
MODEL 9
REMARK VINA RESULT:      -6.7      2.645      4.366
REMARK  Name = 
REMARK  2 active torsions:
REMARK  status: ('A' for Active; 'I' for Inactive)
REMARK    1  A    between atoms: C_2  and  C_3
REMARK    2  A    between atoms: C_21  and  C_22
REMARK                            x       y       z     vdW  Elec       q    Type
REMARK                         _______ _______ _______ _____ _____    ______ ____
ROOT
ATOM      1  C   UNL     1       2.994   5.895  -3.898  0.00  0.00    +0.180 C 
ATOM      2  C   UNL     1       2.510   5.892  -5.352  0.00  0.00    +0.037 C 
ATOM      3  C   UNL     1       1.325   6.932  -5.000  0.00  0.00    +0.003 C 
ATOM      4  C   UNL     1       0.397   6.877  -6.413  0.00  0.00    +0.001 C 
ATOM      5  C   UNL     1       1.583   6.297  -7.448  0.00  0.00    +0.004 C 
ATOM      6  C   UNL     1       2.569   7.532  -7.149  0.00  0.00    +0.000 C 
ATOM      7  C   UNL     1       0.774   6.929  -8.782  0.00  0.00    +0.019 C 
ATOM      8  C   UNL     1      -0.153   5.631  -8.802  0.00  0.00    -0.042 C 
ATOM      9  C   UNL     1      -0.402   5.040  -9.921  0.00  0.00    +0.029 C 
ATOM     10  C   UNL     1       0.429   5.085 -11.130  0.00  0.00    +0.173 C 
ATOM     11  C   UNL     1       1.300   6.308 -11.161  0.00  0.00    +0.069 C 
ATOM     12  O   UNL     1       0.997   4.053 -11.603  0.00  0.00    -0.291 OA
ATOM     13  C   UNL     1      -1.005   5.390  -7.623  0.00  0.00    +0.022 C 
ATOM     14  C   UNL     1       1.908   6.313  -9.773  0.00  0.00    +0.012 C 
ATOM     15  C   UNL     1      -0.262   5.414  -6.299  0.00  0.00    +0.004 C 
ATOM     16  C   UNL     1       0.574   5.780  -4.136  0.00  0.00    +0.004 C 
ATOM     17  C   UNL     1       3.439   6.719  -6.179  0.00  0.00    +0.003 C 
ATOM     18  C   UNL     1       1.750   5.413  -3.228  0.00  0.00    +0.043 C 
ATOM     19  O   UNL     1       3.267   7.211  -3.600  0.00  0.00    -0.212 OA
ENDROOT
BRANCH   1  21
ATOM     20  C   UNL     1       5.063   4.505  -3.751  0.00  0.00    -0.012 C 
ATOM     21  C   UNL     1       4.138   5.001  -3.785  0.00  0.00    -0.049 C 
ENDBRANCH   1  21
BRANCH   2  22
ATOM     22  C   UNL     1       2.131   4.595  -5.672  0.00  0.00    +0.003 C 
ATOM     23  C   UNL     1       2.617   3.712  -6.703  0.00  0.00    +0.000 C 
ENDBRANCH   2  22
TORSDOF 2
ENDMDL
