MODEL 1
REMARK VINA RESULT:      -9.0      0.000      0.000
REMARK  Name = 
REMARK  6 active torsions:
REMARK  status: ('A' for Active; 'I' for Inactive)
REMARK    1  A    between atoms: O_2  and  C_3
REMARK    2  A    between atoms: C_8  and  O_9
REMARK    3  A    between atoms: C_13  and  C_14
REMARK    4  A    between atoms: C_14  and  C_15
REMARK    5  A    between atoms: N_18  and  C_19
REMARK    6  A    between atoms: C_19  and  C_20
REMARK                            x       y       z     vdW  Elec       q    Type
REMARK                         _______ _______ _______ _____ _____    ______ ____
ROOT
ATOM      1  C   UNL     1      -1.084   6.478  -3.636  0.00  0.00    +0.172 A 
ATOM      2  C   UNL     1      -0.038   5.700  -3.157  0.00  0.00    +0.172 A 
ATOM      3  C   UNL     1       0.908   5.332  -4.100  0.00  0.00    +0.043 A 
ATOM      4  C   UNL     1       0.656   5.400  -5.467  0.00  0.00    +0.034 A 
ATOM      5  C   UNL     1       1.322   4.679  -6.510  0.00  0.00    +0.173 C 
ATOM      6  C   UNL     1       0.578   5.111  -7.879  0.00  0.00    +0.066 C 
ATOM      7  C   UNL     1      -0.895   5.209  -7.143  0.00  0.00    +0.034 C 
ATOM      8  O   UNL     1       1.993   3.602  -6.494  0.00  0.00    -0.291 OA
ATOM      9  C   UNL     1      -0.524   5.934  -5.917  0.00  0.00    -0.016 A 
ATOM     10  C   UNL     1      -1.260   6.639  -5.005  0.00  0.00    +0.036 A 
ENDROOT
BRANCH   1  12
ATOM     11  C   UNL     1      -2.667   7.146  -2.676  0.00  0.00    +0.253 C 
ATOM     12  O   UNL     1      -2.051   6.907  -2.721  0.00  0.00    -0.468 OA
ENDBRANCH   1  12
BRANCH   2  13
ATOM     13  O   UNL     1      -0.239   4.967  -1.982  0.00  0.00    -0.468 OA
ATOM     14  C   UNL     1       0.890   4.721  -1.146  0.00  0.00    +0.253 C 
ENDBRANCH   2  13
BRANCH   6  15
ATOM     15  C   UNL     1       0.895   6.713  -7.631  0.00  0.00    +0.008 C 
BRANCH  15  16
ATOM     16  C   UNL     1       1.844   7.013  -8.761  0.00  0.00    +0.003 C 
ATOM     17  C   UNL     1       3.239   6.451  -8.517  0.00  0.00    +0.017 C 
ATOM     18  C   UNL     1       4.089   6.976  -9.665  0.00  0.00    +0.072 C 
ATOM     19  N   UNL     1       3.725   6.257 -10.869  0.00  0.00    -0.269 NA
ATOM     20  C   UNL     1       2.405   5.699 -10.832  0.00  0.00    +0.072 C 
ATOM     21  C   UNL     1       1.392   6.502 -10.090  0.00  0.00    +0.017 C 
BRANCH  19  22
ATOM     22  C   UNL     1       4.689   5.170 -10.998  0.00  0.00    +0.099 C 
BRANCH  22  23
ATOM     23  C   UNL     1       5.987   5.632 -11.530  0.00  0.00    -0.006 A 
ATOM     24  C   UNL     1       6.122   5.676 -12.899  0.00  0.00    -0.003 A 
ATOM     25  C   UNL     1       7.360   5.669 -13.526  0.00  0.00    -0.000 A 
ATOM     26  C   UNL     1       8.497   5.947 -12.780  0.00  0.00    -0.000 A 
ATOM     27  C   UNL     1       8.367   5.827 -11.411  0.00  0.00    -0.000 A 
ATOM     28  C   UNL     1       7.138   5.647 -10.787  0.00  0.00    -0.003 A 
ENDBRANCH  22  23
ENDBRANCH  19  22
ENDBRANCH  15  16
ENDBRANCH   6  15
TORSDOF 6
ENDMDL
MODEL 2
REMARK VINA RESULT:      -8.9      3.154      9.587
REMARK  Name = 
REMARK  6 active torsions:
REMARK  status: ('A' for Active; 'I' for Inactive)
REMARK    1  A    between atoms: O_2  and  C_3
REMARK    2  A    between atoms: C_8  and  O_9
REMARK    3  A    between atoms: C_13  and  C_14
REMARK    4  A    between atoms: C_14  and  C_15
REMARK    5  A    between atoms: N_18  and  C_19
REMARK    6  A    between atoms: C_19  and  C_20
REMARK                            x       y       z     vdW  Elec       q    Type
REMARK                         _______ _______ _______ _____ _____    ______ ____
ROOT
ATOM      1  C   UNL     1       6.384   5.678 -11.040  0.00  0.00    +0.172 A 
ATOM      2  C   UNL     1       5.527   5.659 -12.134  0.00  0.00    +0.172 A 
ATOM      3  C   UNL     1       4.185   5.839 -11.838  0.00  0.00    +0.043 A 
ATOM      4  C   UNL     1       3.682   5.671 -10.551  0.00  0.00    +0.034 A 
ATOM      5  C   UNL     1       2.327   5.397 -10.177  0.00  0.00    +0.173 C 
ATOM      6  C   UNL     1       2.343   5.250  -8.567  0.00  0.00    +0.066 C 
ATOM      7  C   UNL     1       3.831   4.538  -8.565  0.00  0.00    +0.034 C 
ATOM      8  O   UNL     1       1.360   4.893 -10.826  0.00  0.00    -0.291 OA
ATOM      9  C   UNL     1       4.539   5.416  -9.512  0.00  0.00    -0.016 A 
ATOM     10  C   UNL     1       5.868   5.631  -9.751  0.00  0.00    +0.036 A 
ENDROOT
BRANCH   1  12
ATOM     11  C   UNL     1       8.353   5.674 -11.035  0.00  0.00    +0.253 C 
ATOM     12  O   UNL     1       7.754   5.535 -11.284  0.00  0.00    -0.468 OA
ENDBRANCH   1  12
BRANCH   2  13
ATOM     13  O   UNL     1       5.951   5.012 -13.299  0.00  0.00    -0.468 OA
ATOM     14  C   UNL     1       6.277   5.817 -14.430  0.00  0.00    +0.253 C 
ENDBRANCH   2  13
BRANCH   6  15
ATOM     15  C   UNL     1       2.980   6.760  -8.363  0.00  0.00    +0.008 C 
BRANCH  15  16
ATOM     16  C   UNL     1       2.307   7.204  -7.091  0.00  0.00    +0.003 C 
ATOM     17  C   UNL     1       0.968   6.513  -6.866  0.00  0.00    +0.017 C 
ATOM     18  C   UNL     1       0.369   7.187  -5.640  0.00  0.00    +0.072 C 
ATOM     19  N   UNL     1       1.095   6.735  -4.471  0.00  0.00    -0.269 NA
ATOM     20  C   UNL     1       2.420   6.271  -4.757  0.00  0.00    +0.072 C 
ATOM     21  C   UNL     1       3.124   6.986  -5.860  0.00  0.00    +0.017 C 
BRANCH  19  22
ATOM     22  C   UNL     1       0.322   5.629  -3.917  0.00  0.00    +0.099 C 
BRANCH  22  23
ATOM     23  C   UNL     1      -1.036   6.044  -3.508  0.00  0.00    -0.006 A 
ATOM     24  C   UNL     1      -1.136   6.851  -2.398  0.00  0.00    -0.003 A 
ATOM     25  C   UNL     1      -2.307   6.964  -1.662  0.00  0.00    -0.000 A 
ATOM     26  C   UNL     1      -3.499   6.520  -2.217  0.00  0.00    -0.000 A 
ATOM     27  C   UNL     1      -3.383   5.651  -3.284  0.00  0.00    -0.000 A 
ATOM     28  C   UNL     1      -2.171   5.392  -3.912  0.00  0.00    -0.003 A 
ENDBRANCH  22  23
ENDBRANCH  19  22
ENDBRANCH  15  16
ENDBRANCH   6  15
TORSDOF 6
ENDMDL
MODEL 3
REMARK VINA RESULT:      -8.8      1.927      3.013
REMARK  Name = 
REMARK  6 active torsions:
REMARK  status: ('A' for Active; 'I' for Inactive)
REMARK    1  A    between atoms: O_2  and  C_3
REMARK    2  A    between atoms: C_8  and  O_9
REMARK    3  A    between atoms: C_13  and  C_14
REMARK    4  A    between atoms: C_14  and  C_15
REMARK    5  A    between atoms: N_18  and  C_19
REMARK    6  A    between atoms: C_19  and  C_20
REMARK                            x       y       z     vdW  Elec       q    Type
REMARK                         _______ _______ _______ _____ _____    ______ ____
ROOT
ATOM      1  C   UNL     1       2.218   6.270  -2.275  0.00  0.00    +0.172 A 
ATOM      2  C   UNL     1       1.236   5.607  -1.550  0.00  0.00    +0.172 A 
ATOM      3  C   UNL     1       0.180   5.112  -2.298  0.00  0.00    +0.043 A 
ATOM      4  C   UNL     1      -0.085   5.557  -3.589  0.00  0.00    +0.034 A 
ATOM      5  C   UNL     1      -1.329   5.482  -4.295  0.00  0.00    +0.173 C 
ATOM      6  C   UNL     1      -1.061   6.198  -5.721  0.00  0.00    +0.066 C 
ATOM      7  C   UNL     1      -0.039   7.312  -5.061  0.00  0.00    +0.034 C 
ATOM      8  O   UNL     1      -2.524   5.365  -3.887  0.00  0.00    -0.291 OA
ATOM      9  C   UNL     1       0.771   6.440  -4.195  0.00  0.00    -0.016 A 
ATOM     10  C   UNL     1       1.993   6.607  -3.604  0.00  0.00    +0.036 A 
ENDROOT
BRANCH   1  12
ATOM     11  C   UNL     1       3.905   7.074  -1.655  0.00  0.00    +0.253 C 
ATOM     12  O   UNL     1       3.326   6.761  -1.576  0.00  0.00    -0.468 OA
ENDBRANCH   1  12
BRANCH   2  13
ATOM     13  O   UNL     1       1.113   5.889  -0.185  0.00  0.00    -0.468 OA
ATOM     14  C   UNL     1       0.234   6.943   0.202  0.00  0.00    +0.253 C 
ENDBRANCH   2  13
BRANCH   6  15
ATOM     15  C   UNL     1       0.176   5.168  -6.088  0.00  0.00    +0.008 C 
BRANCH  15  16
ATOM     16  C   UNL     1       0.869   5.910  -7.200  0.00  0.00    +0.003 C 
ATOM     17  C   UNL     1       2.371   5.655  -7.224  0.00  0.00    +0.017 C 
ATOM     18  C   UNL     1       2.920   6.591  -8.292  0.00  0.00    +0.072 C 
ATOM     19  N   UNL     1       2.545   6.071  -9.591  0.00  0.00    -0.269 NA
ATOM     20  C   UNL     1       1.391   5.222  -9.563  0.00  0.00    +0.072 C 
ATOM     21  C   UNL     1       0.349   5.593  -8.563  0.00  0.00    +0.017 C 
BRANCH  19  22
ATOM     22  C   UNL     1       3.686   5.293 -10.059  0.00  0.00    +0.099 C 
BRANCH  22  23
ATOM     23  C   UNL     1       4.940   6.075 -10.053  0.00  0.00    -0.006 A 
ATOM     24  C   UNL     1       5.038   7.106 -10.961  0.00  0.00    -0.003 A 
ATOM     25  C   UNL     1       6.257   7.631 -11.362  0.00  0.00    -0.000 A 
ATOM     26  C   UNL     1       7.393   7.351 -10.613  0.00  0.00    -0.000 A 
ATOM     27  C   UNL     1       7.304   6.269  -9.761  0.00  0.00    -0.000 A 
ATOM     28  C   UNL     1       6.105   5.619  -9.497  0.00  0.00    -0.003 A 
ENDBRANCH  22  23
ENDBRANCH  19  22
ENDBRANCH  15  16
ENDBRANCH   6  15
TORSDOF 6
ENDMDL
MODEL 4
REMARK VINA RESULT:      -8.6      1.954      3.234
REMARK  Name = 
REMARK  6 active torsions:
REMARK  status: ('A' for Active; 'I' for Inactive)
REMARK    1  A    between atoms: O_2  and  C_3
REMARK    2  A    between atoms: C_8  and  O_9
REMARK    3  A    between atoms: C_13  and  C_14
REMARK    4  A    between atoms: C_14  and  C_15
REMARK    5  A    between atoms: N_18  and  C_19
REMARK    6  A    between atoms: C_19  and  C_20
REMARK                            x       y       z     vdW  Elec       q    Type
REMARK                         _______ _______ _______ _____ _____    ______ ____
ROOT
ATOM      1  C   UNL     1       0.490   5.960  -1.237  0.00  0.00    +0.172 A 
ATOM      2  C   UNL     1      -0.886   5.771  -1.265  0.00  0.00    +0.172 A 
ATOM      3  C   UNL     1      -1.410   5.410  -2.496  0.00  0.00    +0.043 A 
ATOM      4  C   UNL     1      -0.705   5.589  -3.682  0.00  0.00    +0.034 A 
ATOM      5  C   UNL     1      -1.242   5.680  -5.006  0.00  0.00    +0.173 C 
ATOM      6  C   UNL     1       0.029   5.940  -5.972  0.00  0.00    +0.066 C 
ATOM      7  C   UNL     1       0.798   6.868  -4.845  0.00  0.00    +0.034 C 
ATOM      8  O   UNL     1      -2.400   5.983  -5.427  0.00  0.00    -0.291 OA
ATOM      9  C   UNL     1       0.588   6.045  -3.644  0.00  0.00    -0.016 A 
ATOM     10  C   UNL     1       1.208   6.018  -2.425  0.00  0.00    +0.036 A 
ENDROOT
BRANCH   1  12
ATOM     11  C   UNL     1       1.514   6.704   0.271  0.00  0.00    +0.253 C 
ATOM     12  O   UNL     1       1.078   6.292  -0.012  0.00  0.00    -0.468 OA
ENDBRANCH   1  12
BRANCH   2  13
ATOM     13  O   UNL     1      -1.662   6.392  -0.280  0.00  0.00    -0.468 OA
ATOM     14  C   UNL     1      -2.001   7.765  -0.463  0.00  0.00    +0.253 C 
ENDBRANCH   2  13
BRANCH   6  15
ATOM     15  C   UNL     1       0.787   4.563  -5.466  0.00  0.00    +0.008 C 
BRANCH  15  16
ATOM     16  C   UNL     1       1.793   4.348  -6.567  0.00  0.00    +0.003 C 
ATOM     17  C   UNL     1       1.438   5.108  -7.839  0.00  0.00    +0.017 C 
ATOM     18  C   UNL     1       2.459   4.658  -8.874  0.00  0.00    +0.072 C 
ATOM     19  N   UNL     1       3.734   5.267  -8.552  0.00  0.00    -0.269 NA
ATOM     20  C   UNL     1       3.867   5.637  -7.175  0.00  0.00    +0.072 C 
ATOM     21  C   UNL     1       3.188   4.734  -6.202  0.00  0.00    +0.017 C 
BRANCH  19  22
ATOM     22  C   UNL     1       3.824   6.470  -9.371  0.00  0.00    +0.099 C 
BRANCH  22  23
ATOM     23  C   UNL     1       5.084   6.532 -10.141  0.00  0.00    -0.006 A 
ATOM     24  C   UNL     1       6.116   5.727  -9.716  0.00  0.00    -0.003 A 
ATOM     25  C   UNL     1       7.440   5.977 -10.046  0.00  0.00    -0.000 A 
ATOM     26  C   UNL     1       7.724   6.857 -11.082  0.00  0.00    -0.000 A 
ATOM     27  C   UNL     1       6.701   7.710 -11.448  0.00  0.00    -0.000 A 
ATOM     28  C   UNL     1       5.403   7.573 -10.972  0.00  0.00    -0.003 A 
ENDBRANCH  22  23
ENDBRANCH  19  22
ENDBRANCH  15  16
ENDBRANCH   6  15
TORSDOF 6
ENDMDL
MODEL 5
REMARK VINA RESULT:      -8.3      3.675      9.371
REMARK  Name = 
REMARK  6 active torsions:
REMARK  status: ('A' for Active; 'I' for Inactive)
REMARK    1  A    between atoms: O_2  and  C_3
REMARK    2  A    between atoms: C_8  and  O_9
REMARK    3  A    between atoms: C_13  and  C_14
REMARK    4  A    between atoms: C_14  and  C_15
REMARK    5  A    between atoms: N_18  and  C_19
REMARK    6  A    between atoms: C_19  and  C_20
REMARK                            x       y       z     vdW  Elec       q    Type
REMARK                         _______ _______ _______ _____ _____    ______ ____
ROOT
ATOM      1  C   UNL     1       3.574   5.800 -13.458  0.00  0.00    +0.172 A 
ATOM      2  C   UNL     1       4.942   5.597 -13.592  0.00  0.00    +0.172 A 
ATOM      3  C   UNL     1       5.609   5.265 -12.425  0.00  0.00    +0.043 A 
ATOM      4  C   UNL     1       5.055   5.484 -11.167  0.00  0.00    +0.034 A 
ATOM      5  C   UNL     1       5.750   5.606  -9.921  0.00  0.00    +0.173 C 
ATOM      6  C   UNL     1       4.609   5.907  -8.815  0.00  0.00    +0.066 C 
ATOM      7  C   UNL     1       3.716   6.812  -9.867  0.00  0.00    +0.034 C 
ATOM      8  O   UNL     1       6.954   5.908  -9.654  0.00  0.00    -0.291 OA
ATOM      9  C   UNL     1       3.771   5.953 -11.060  0.00  0.00    -0.016 A 
ATOM     10  C   UNL     1       3.006   5.900 -12.193  0.00  0.00    +0.036 A 
ENDROOT
BRANCH   1  12
ATOM     11  C   UNL     1       2.266   6.356 -14.820  0.00  0.00    +0.253 C 
ATOM     12  O   UNL     1       2.843   6.105 -14.611  0.00  0.00    -0.468 OA
ENDBRANCH   1  12
BRANCH   2  13
ATOM     13  O   UNL     1       5.596   6.182 -14.682  0.00  0.00    -0.468 OA
ATOM     14  C   UNL     1       6.989   6.458 -14.556  0.00  0.00    +0.253 C 
ENDBRANCH   2  13
BRANCH   6  15
ATOM     15  C   UNL     1       3.785   4.524  -9.185  0.00  0.00    +0.008 C 
BRANCH  15  16
ATOM     16  C   UNL     1       2.903   4.364  -7.975  0.00  0.00    +0.003 C 
ATOM     17  C   UNL     1       3.309   5.284  -6.830  0.00  0.00    +0.017 C 
ATOM     18  C   UNL     1       2.425   4.882  -5.658  0.00  0.00    +0.072 C 
ATOM     19  N   UNL     1       1.082   5.361  -5.915  0.00  0.00    -0.269 NA
ATOM     20  C   UNL     1       0.796   5.566  -7.304  0.00  0.00    +0.072 C 
ATOM     21  C   UNL     1       1.453   4.609  -8.239  0.00  0.00    +0.017 C 
BRANCH  19  22
ATOM     22  C   UNL     1       0.970   6.639  -5.221  0.00  0.00    +0.099 C 
BRANCH  22  23
ATOM     23  C   UNL     1      -0.279   6.745  -4.438  0.00  0.00    -0.006 A 
ATOM     24  C   UNL     1      -0.719   5.605  -3.806  0.00  0.00    -0.003 A 
ATOM     25  C   UNL     1      -2.038   5.434  -3.412  0.00  0.00    -0.000 A 
ATOM     26  C   UNL     1      -2.875   6.541  -3.353  0.00  0.00    -0.000 A 
ATOM     27  C   UNL     1      -2.456   7.654  -4.053  0.00  0.00    -0.000 A 
ATOM     28  C   UNL     1      -1.188   7.755  -4.613  0.00  0.00    -0.003 A 
ENDBRANCH  22  23
ENDBRANCH  19  22
ENDBRANCH  15  16
ENDBRANCH   6  15
TORSDOF 6
ENDMDL
MODEL 6
REMARK VINA RESULT:      -8.2      1.575      2.423
REMARK  Name = 
REMARK  6 active torsions:
REMARK  status: ('A' for Active; 'I' for Inactive)
REMARK    1  A    between atoms: O_2  and  C_3
REMARK    2  A    between atoms: C_8  and  O_9
REMARK    3  A    between atoms: C_13  and  C_14
REMARK    4  A    between atoms: C_14  and  C_15
REMARK    5  A    between atoms: N_18  and  C_19
REMARK    6  A    between atoms: C_19  and  C_20
REMARK                            x       y       z     vdW  Elec       q    Type
REMARK                         _______ _______ _______ _____ _____    ______ ____
ROOT
ATOM      1  C   UNL     1       1.758   6.043  -3.043  0.00  0.00    +0.172 A 
ATOM      2  C   UNL     1       0.498   5.514  -2.789  0.00  0.00    +0.172 A 
ATOM      3  C   UNL     1      -0.182   5.043  -3.901  0.00  0.00    +0.043 A 
ATOM      4  C   UNL     1       0.177   5.403  -5.196  0.00  0.00    +0.034 A 
ATOM      5  C   UNL     1      -0.645   5.367  -6.367  0.00  0.00    +0.173 C 
ATOM      6  C   UNL     1       0.277   5.946  -7.563  0.00  0.00    +0.066 C 
ATOM      7  C   UNL     1       1.027   7.029  -6.569  0.00  0.00    +0.034 C 
ATOM      8  O   UNL     1      -1.906   5.373  -6.512  0.00  0.00    -0.291 OA
ATOM      9  C   UNL     1       1.295   6.169  -5.405  0.00  0.00    -0.016 A 
ATOM     10  C   UNL     1       2.158   6.290  -4.350  0.00  0.00    +0.036 A 
ENDROOT
BRANCH   1  12
ATOM     11  C   UNL     1       3.053   6.837  -1.791  0.00  0.00    +0.253 C 
ATOM     12  O   UNL     1       2.504   6.503  -1.953  0.00  0.00    -0.468 OA
ENDBRANCH   1  12
BRANCH   2  13
ATOM     13  O   UNL     1      -0.167   5.912  -1.624  0.00  0.00    -0.468 OA
ATOM     14  C   UNL     1      -1.300   6.767  -1.760  0.00  0.00    +0.253 C 
ENDBRANCH   2  13
BRANCH   6  15
ATOM     15  C   UNL     1       1.440   4.800  -7.319  0.00  0.00    +0.008 C 
BRANCH  15  16
ATOM     16  C   UNL     1       2.110   4.756  -8.667  0.00  0.00    +0.003 C 
ATOM     17  C   UNL     1       2.139   6.117  -9.350  0.00  0.00    +0.017 C 
ATOM     18  C   UNL     1       2.700   5.857 -10.741  0.00  0.00    +0.072 C 
ATOM     19  N   UNL     1       4.120   5.596 -10.618  0.00  0.00    -0.269 NA
ATOM     20  C   UNL     1       4.512   5.122  -9.323  0.00  0.00    +0.072 C 
ATOM     21  C   UNL     1       3.516   4.253  -8.633  0.00  0.00    +0.017 C 
BRANCH  19  22
ATOM     22  C   UNL     1       4.788   6.867 -10.872  0.00  0.00    +0.099 C 
BRANCH  22  23
ATOM     23  C   UNL     1       6.129   6.688 -11.466  0.00  0.00    -0.006 A 
ATOM     24  C   UNL     1       6.202   5.978 -12.643  0.00  0.00    -0.003 A 
ATOM     25  C   UNL     1       7.373   5.375 -13.078  0.00  0.00    -0.000 A 
ATOM     26  C   UNL     1       8.580   5.749 -12.501  0.00  0.00    -0.000 A 
ATOM     27  C   UNL     1       8.494   6.395 -11.284  0.00  0.00    -0.000 A 
ATOM     28  C   UNL     1       7.289   6.840 -10.754  0.00  0.00    -0.003 A 
ENDBRANCH  22  23
ENDBRANCH  19  22
ENDBRANCH  15  16
ENDBRANCH   6  15
TORSDOF 6
ENDMDL
MODEL 7
REMARK VINA RESULT:      -8.1      1.559      2.163
REMARK  Name = 
REMARK  6 active torsions:
REMARK  status: ('A' for Active; 'I' for Inactive)
REMARK    1  A    between atoms: O_2  and  C_3
REMARK    2  A    between atoms: C_8  and  O_9
REMARK    3  A    between atoms: C_13  and  C_14
REMARK    4  A    between atoms: C_14  and  C_15
REMARK    5  A    between atoms: N_18  and  C_19
REMARK    6  A    between atoms: C_19  and  C_20
REMARK                            x       y       z     vdW  Elec       q    Type
REMARK                         _______ _______ _______ _____ _____    ______ ____
ROOT
ATOM      1  C   UNL     1      -1.066   5.625  -4.319  0.00  0.00    +0.172 A 
ATOM      2  C   UNL     1      -0.402   5.707  -3.101  0.00  0.00    +0.172 A 
ATOM      3  C   UNL     1       0.977   5.809  -3.184  0.00  0.00    +0.043 A 
ATOM      4  C   UNL     1       1.676   5.477  -4.340  0.00  0.00    +0.034 A 
ATOM      5  C   UNL     1       3.059   5.118  -4.447  0.00  0.00    +0.173 C 
ATOM      6  C   UNL     1       3.301   4.785  -6.011  0.00  0.00    +0.066 C 
ATOM      7  C   UNL     1       1.799   4.125  -6.186  0.00  0.00    +0.034 C 
ATOM      8  O   UNL     1       3.879   4.664  -3.592  0.00  0.00    -0.291 OA
ATOM      9  C   UNL     1       0.991   5.128  -5.475  0.00  0.00    -0.016 A 
ATOM     10  C   UNL     1      -0.348   5.411  -5.490  0.00  0.00    +0.036 A 
ENDROOT
BRANCH   1  12
ATOM     11  C   UNL     1      -3.000   5.597  -4.683  0.00  0.00    +0.253 C 
ATOM     12  O   UNL     1      -2.463   5.554  -4.297  0.00  0.00    -0.468 OA
ENDBRANCH   1  12
BRANCH   2  13
ATOM     13  O   UNL     1      -1.044   5.213  -1.961  0.00  0.00    -0.468 OA
ATOM     14  C   UNL     1      -1.218   6.098  -0.855  0.00  0.00    +0.253 C 
ENDBRANCH   2  13
BRANCH   6  15
ATOM     15  C   UNL     1       2.783   6.280  -6.484  0.00  0.00    +0.008 C 
BRANCH  15  16
ATOM     16  C   UNL     1       3.715   6.576  -7.629  0.00  0.00    +0.003 C 
ATOM     17  C   UNL     1       4.424   5.329  -8.142  0.00  0.00    +0.017 C 
ATOM     18  C   UNL     1       5.425   5.831  -9.173  0.00  0.00    +0.072 C 
ATOM     19  N   UNL     1       4.695   6.225 -10.362  0.00  0.00    -0.269 NA
ATOM     20  C   UNL     1       3.324   6.561 -10.115  0.00  0.00    +0.072 C 
ATOM     21  C   UNL     1       3.054   7.218  -8.804  0.00  0.00    +0.017 C 
BRANCH  19  22
ATOM     22  C   UNL     1       4.741   5.078 -11.262  0.00  0.00    +0.099 C 
BRANCH  22  23
ATOM     23  C   UNL     1       5.506   5.362 -12.494  0.00  0.00    -0.006 A 
ATOM     24  C   UNL     1       6.878   5.313 -12.403  0.00  0.00    -0.003 A 
ATOM     25  C   UNL     1       7.708   5.951 -13.314  0.00  0.00    -0.000 A 
ATOM     26  C   UNL     1       7.180   6.381 -14.523  0.00  0.00    -0.000 A 
ATOM     27  C   UNL     1       5.805   6.496 -14.577  0.00  0.00    -0.000 A 
ATOM     28  C   UNL     1       4.973   6.019 -13.571  0.00  0.00    -0.003 A 
ENDBRANCH  22  23
ENDBRANCH  19  22
ENDBRANCH  15  16
ENDBRANCH   6  15
TORSDOF 6
ENDMDL
MODEL 8
REMARK VINA RESULT:      -8.1      2.880      3.763
REMARK  Name = 
REMARK  6 active torsions:
REMARK  status: ('A' for Active; 'I' for Inactive)
REMARK    1  A    between atoms: O_2  and  C_3
REMARK    2  A    between atoms: C_8  and  O_9
REMARK    3  A    between atoms: C_13  and  C_14
REMARK    4  A    between atoms: C_14  and  C_15
REMARK    5  A    between atoms: N_18  and  C_19
REMARK    6  A    between atoms: C_19  and  C_20
REMARK                            x       y       z     vdW  Elec       q    Type
REMARK                         _______ _______ _______ _____ _____    ______ ____
ROOT
ATOM      1  C   UNL     1       2.101   6.672  -1.213  0.00  0.00    +0.172 A 
ATOM      2  C   UNL     1       3.059   7.663  -1.043  0.00  0.00    +0.172 A 
ATOM      3  C   UNL     1       3.862   7.907  -2.146  0.00  0.00    +0.043 A 
ATOM      4  C   UNL     1       3.972   7.001  -3.197  0.00  0.00    +0.034 A 
ATOM      5  C   UNL     1       5.038   6.898  -4.147  0.00  0.00    +0.173 C 
ATOM      6  C   UNL     1       4.658   5.641  -5.091  0.00  0.00    +0.066 C 
ATOM      7  C   UNL     1       3.984   4.802  -3.840  0.00  0.00    +0.034 C 
ATOM      8  O   UNL     1       6.246   7.283  -4.103  0.00  0.00    -0.291 OA
ATOM      9  C   UNL     1       3.195   5.871  -3.206  0.00  0.00    -0.016 A 
ATOM     10  C   UNL     1       2.146   5.845  -2.329  0.00  0.00    +0.036 A 
ENDROOT
BRANCH   1  12
ATOM     11  C   UNL     1       0.626   6.519   0.082  0.00  0.00    +0.253 C 
ATOM     12  O   UNL     1       1.239   6.407  -0.143  0.00  0.00    -0.468 OA
ENDBRANCH   1  12
BRANCH   2  13
ATOM     13  O   UNL     1       3.469   7.975   0.258  0.00  0.00    -0.468 OA
ATOM     14  C   UNL     1       4.678   7.389   0.737  0.00  0.00    +0.253 C 
ENDBRANCH   2  13
BRANCH   6  15
ATOM     15  C   UNL     1       3.211   6.310  -5.522  0.00  0.00    +0.008 C 
BRANCH  15  16
ATOM     16  C   UNL     1       3.111   5.910  -6.971  0.00  0.00    +0.003 C 
ATOM     17  C   UNL     1       3.095   7.111  -7.908  0.00  0.00    +0.017 C 
ATOM     18  C   UNL     1       2.836   6.536  -9.293  0.00  0.00    +0.072 C 
ATOM     19  N   UNL     1       4.041   5.871  -9.743  0.00  0.00    -0.269 NA
ATOM     20  C   UNL     1       4.903   5.451  -8.677  0.00  0.00    +0.072 C 
ATOM     21  C   UNL     1       4.210   5.011  -7.432  0.00  0.00    +0.017 C 
BRANCH  19  22
ATOM     22  C   UNL     1       4.755   6.841 -10.566  0.00  0.00    +0.099 C 
BRANCH  22  23
ATOM     23  C   UNL     1       5.920   6.245 -11.253  0.00  0.00    -0.006 A 
ATOM     24  C   UNL     1       7.167   6.625 -10.813  0.00  0.00    -0.003 A 
ATOM     25  C   UNL     1       8.304   6.501 -11.598  0.00  0.00    -0.000 A 
ATOM     26  C   UNL     1       8.262   5.688 -12.723  0.00  0.00    -0.000 A 
ATOM     27  C   UNL     1       7.004   5.376 -13.198  0.00  0.00    -0.000 A 
ATOM     28  C   UNL     1       5.843   5.667 -12.492  0.00  0.00    -0.003 A 
ENDBRANCH  22  23
ENDBRANCH  19  22
ENDBRANCH  15  16
ENDBRANCH   6  15
TORSDOF 6
ENDMDL
MODEL 9
REMARK VINA RESULT:      -7.9      3.335      8.968
REMARK  Name = 
REMARK  6 active torsions:
REMARK  status: ('A' for Active; 'I' for Inactive)
REMARK    1  A    between atoms: O_2  and  C_3
REMARK    2  A    between atoms: C_8  and  O_9
REMARK    3  A    between atoms: C_13  and  C_14
REMARK    4  A    between atoms: C_14  and  C_15
REMARK    5  A    between atoms: N_18  and  C_19
REMARK    6  A    between atoms: C_19  and  C_20
REMARK                            x       y       z     vdW  Elec       q    Type
REMARK                         _______ _______ _______ _____ _____    ______ ____
ROOT
ATOM      1  C   UNL     1       6.128   5.710 -11.153  0.00  0.00    +0.172 A 
ATOM      2  C   UNL     1       5.344   5.634 -12.298  0.00  0.00    +0.172 A 
ATOM      3  C   UNL     1       3.983   5.799 -12.097  0.00  0.00    +0.043 A 
ATOM      4  C   UNL     1       3.400   5.671 -10.840  0.00  0.00    +0.034 A 
ATOM      5  C   UNL     1       2.029   5.384 -10.544  0.00  0.00    +0.173 C 
ATOM      6  C   UNL     1       1.942   5.299  -8.931  0.00  0.00    +0.066 C 
ATOM      7  C   UNL     1       3.439   4.616  -8.806  0.00  0.00    +0.034 C 
ATOM      8  O   UNL     1       1.114   4.838 -11.233  0.00  0.00    -0.291 OA
ATOM      9  C   UNL     1       4.192   5.471  -9.738  0.00  0.00    -0.016 A 
ATOM     10  C   UNL     1       5.530   5.702  -9.899  0.00  0.00    +0.036 A 
ENDROOT
BRANCH   1  12
ATOM     11  C   UNL     1       8.071   5.451 -10.969  0.00  0.00    +0.253 C 
ATOM     12  O   UNL     1       7.513   5.584 -11.302  0.00  0.00    -0.468 OA
ENDBRANCH   1  12
BRANCH   2  13
ATOM     13  O   UNL     1       5.854   4.951 -13.408  0.00  0.00    -0.468 OA
ATOM     14  C   UNL     1       6.443   5.721 -14.454  0.00  0.00    +0.253 C 
ENDBRANCH   2  13
BRANCH   6  15
ATOM     15  C   UNL     1       2.539   6.827  -8.746  0.00  0.00    +0.008 C 
BRANCH  15  16
ATOM     16  C   UNL     1       2.052   7.178  -7.364  0.00  0.00    +0.003 C 
ATOM     17  C   UNL     1       1.174   6.089  -6.761  0.00  0.00    +0.017 C 
ATOM     18  C   UNL     1       0.653   6.671  -5.454  0.00  0.00    +0.072 C 
ATOM     19  N   UNL     1       1.741   6.690  -4.498  0.00  0.00    -0.269 NA
ATOM     20  C   UNL     1       3.041   6.701  -5.100  0.00  0.00    +0.072 C 
ATOM     21  C   UNL     1       3.144   7.453  -6.384  0.00  0.00    +0.017 C 
BRANCH  19  22
ATOM     22  C   UNL     1       1.604   5.473  -3.706  0.00  0.00    +0.099 C 
BRANCH  22  23
ATOM     23  C   UNL     1       2.363   5.539  -2.439  0.00  0.00    -0.006 A 
ATOM     24  C   UNL     1       2.122   6.620  -1.622  0.00  0.00    -0.003 A 
ATOM     25  C   UNL     1       3.024   7.037  -0.655  0.00  0.00    -0.000 A 
ATOM     26  C   UNL     1       4.044   6.178  -0.266  0.00  0.00    -0.000 A 
ATOM     27  C   UNL     1       4.324   5.140  -1.132  0.00  0.00    -0.000 A 
ATOM     28  C   UNL     1       3.515   4.832  -2.220  0.00  0.00    -0.003 A 
ENDBRANCH  22  23
ENDBRANCH  19  22
ENDBRANCH  15  16
ENDBRANCH   6  15
TORSDOF 6
ENDMDL
