MODEL 1
REMARK VINA RESULT:      -9.6      0.000      0.000
REMARK  Name = 
REMARK  4 active torsions:
REMARK  status: ('A' for Active; 'I' for Inactive)
REMARK    1  A    between atoms: C_6  and  N_7
REMARK    2  A    between atoms: N_7  and  C_9
REMARK    3  A    between atoms: N_14  and  C_15
REMARK    4  A    between atoms: C_20  and  S_21
REMARK                            x       y       z     vdW  Elec       q    Type
REMARK                         _______ _______ _______ _____ _____    ______ ____
ROOT
ATOM      1  C   UNL     1       1.561   6.252  -6.332  0.00  0.00    +0.140 A 
ATOM      2  N   UNL     1       2.441   5.405  -6.894  0.00  0.00    -0.197 NA
ATOM      3  C   UNL     1       2.927   5.607  -8.140  0.00  0.00    +0.242 A 
ATOM      4  N   UNL     1       3.669   4.600  -8.802  0.00  0.00    -0.178 NA
ATOM      5  N   UNL     1       2.772   6.816  -8.685  0.00  0.00    -0.211 NA
ATOM      6  C   UNL     1       2.295   7.833  -7.932  0.00  0.00    +0.105 A 
ATOM      7  C   UNL     1       1.587   7.560  -6.782  0.00  0.00    +0.055 A 
ENDROOT
BRANCH   4   8
ATOM      8  C   UNL     1       4.853   4.932  -9.518  0.00  0.00    +0.075 A 
ATOM      9  C   UNL     1       4.808   5.215 -10.876  0.00  0.00    +0.036 A 
ATOM     10  C   UNL     1       6.025   5.458 -11.488  0.00  0.00    +0.122 A 
ATOM     11  C   UNL     1       7.141   5.777 -10.750  0.00  0.00    -0.003 A 
ATOM     12  C   UNL     1       8.460   6.005 -11.378  0.00  0.00    +0.032 C 
ATOM     13  C   UNL     1       7.076   5.822  -9.372  0.00  0.00    -0.002 A 
ATOM     14  C   UNL     1       5.873   5.509  -8.791  0.00  0.00    +0.016 A 
BRANCH  10  15
ATOM     15  S   UNL     1       6.186   5.562 -13.237  0.00  0.00    +0.093 S 
ATOM     16  O   UNL     1       4.932   4.993 -13.821  0.00  0.00    -0.150 OA
ATOM     17  O   UNL     1       7.403   4.784 -13.689  0.00  0.00    -0.150 OA
ATOM     18  N   UNL     1       6.336   7.236 -13.653  0.00  0.00    +0.039 NA
ENDBRANCH  10  15
ENDBRANCH   4   8
BRANCH   1  19
ATOM     19  N   UNL     1       0.504   5.762  -5.508  0.00  0.00    -0.270 N 
ATOM     20  C   UNL     1      -0.676   5.281  -6.198  0.00  0.00    +0.119 C 
BRANCH  19  28
ATOM     21  C   UNL     1       0.219   7.605   0.404  0.00  0.00    +0.052 C 
ATOM     22  C   UNL     1       1.263   6.895  -0.399  0.00  0.00    +0.057 A 
ATOM     23  N   UNL     1       2.516   7.377  -0.585  0.00  0.00    -0.253 N 
ATOM     24  C   UNL     1       3.080   8.560   0.057  0.00  0.00    +0.153 C 
ATOM     25  N   UNL     1       3.109   6.666  -1.545  0.00  0.00    -0.170 NA
ATOM     26  C   UNL     1       2.167   6.020  -2.275  0.00  0.00    +0.103 A 
ATOM     27  C   UNL     1       2.047   5.678  -3.617  0.00  0.00    +0.036 A 
ATOM     28  C   UNL     1       0.805   5.386  -4.165  0.00  0.00    +0.054 A 
ATOM     29  C   UNL     1      -0.174   5.006  -3.265  0.00  0.00    +0.015 A 
ATOM     30  C   UNL     1      -0.084   5.377  -1.928  0.00  0.00    +0.004 A 
ATOM     31  C   UNL     1       1.059   5.992  -1.436  0.00  0.00    +0.033 A 
ENDBRANCH  19  28
ENDBRANCH   1  19
TORSDOF 4
ENDMDL
MODEL 2
REMARK VINA RESULT:      -9.1      2.453      3.447
REMARK  Name = 
REMARK  4 active torsions:
REMARK  status: ('A' for Active; 'I' for Inactive)
REMARK    1  A    between atoms: C_6  and  N_7
REMARK    2  A    between atoms: N_7  and  C_9
REMARK    3  A    between atoms: N_14  and  C_15
REMARK    4  A    between atoms: C_20  and  S_21
REMARK                            x       y       z     vdW  Elec       q    Type
REMARK                         _______ _______ _______ _____ _____    ______ ____
ROOT
ATOM      1  C   UNL     1       2.164   5.445  -5.819  0.00  0.00    +0.140 A 
ATOM      2  N   UNL     1       2.108   6.294  -6.860  0.00  0.00    -0.197 NA
ATOM      3  C   UNL     1       2.529   5.935  -8.094  0.00  0.00    +0.242 A 
ATOM      4  N   UNL     1       2.677   6.898  -9.120  0.00  0.00    -0.178 NA
ATOM      5  N   UNL     1       2.704   4.635  -8.343  0.00  0.00    -0.211 NA
ATOM      6  C   UNL     1       2.305   3.719  -7.432  0.00  0.00    +0.105 A 
ATOM      7  C   UNL     1       2.123   4.095  -6.118  0.00  0.00    +0.055 A 
ENDROOT
BRANCH   4   8
ATOM      8  C   UNL     1       2.219   6.621 -10.439  0.00  0.00    +0.075 A 
ATOM      9  C   UNL     1       3.017   5.925 -11.338  0.00  0.00    +0.036 A 
ATOM     10  C   UNL     1       2.504   5.771 -12.613  0.00  0.00    +0.122 A 
ATOM     11  C   UNL     1       1.164   5.945 -12.867  0.00  0.00    -0.003 A 
ATOM     12  C   UNL     1       0.598   5.821 -14.227  0.00  0.00    +0.032 C 
ATOM     13  C   UNL     1       0.305   6.319 -11.852  0.00  0.00    -0.002 A 
ATOM     14  C   UNL     1       0.854   6.533 -10.614  0.00  0.00    +0.016 A 
BRANCH  10  15
ATOM     15  S   UNL     1       3.481   5.163 -13.945  0.00  0.00    +0.093 S 
ATOM     16  O   UNL     1       3.561   6.261 -14.957  0.00  0.00    -0.150 OA
ATOM     17  O   UNL     1       2.840   3.923 -14.529  0.00  0.00    -0.150 OA
ATOM     18  N   UNL     1       5.057   4.806 -13.320  0.00  0.00    +0.039 NA
ENDBRANCH  10  15
ENDBRANCH   4   8
BRANCH   1  19
ATOM     19  N   UNL     1       2.497   5.915  -4.514  0.00  0.00    -0.270 N 
ATOM     20  C   UNL     1       3.315   7.109  -4.453  0.00  0.00    +0.119 C 
BRANCH  19  28
ATOM     21  C   UNL     1      -1.704   7.723  -0.328  0.00  0.00    +0.052 C 
ATOM     22  C   UNL     1      -0.489   6.853  -0.251  0.00  0.00    +0.057 A 
ATOM     23  N   UNL     1       0.566   7.115   0.558  0.00  0.00    -0.253 N 
ATOM     24  C   UNL     1       0.633   8.178   1.556  0.00  0.00    +0.153 C 
ATOM     25  N   UNL     1       1.580   6.323   0.209  0.00  0.00    -0.170 NA
ATOM     26  C   UNL     1       1.374   5.854  -1.046  0.00  0.00    +0.103 A 
ATOM     27  C   UNL     1       2.208   5.550  -2.116  0.00  0.00    +0.036 A 
ATOM     28  C   UNL     1       1.706   5.480  -3.410  0.00  0.00    +0.054 A 
ATOM     29  C   UNL     1       0.343   5.265  -3.512  0.00  0.00    +0.015 A 
ATOM     30  C   UNL     1      -0.504   5.602  -2.463  0.00  0.00    +0.004 A 
ATOM     31  C   UNL     1       0.006   6.008  -1.238  0.00  0.00    +0.033 A 
ENDBRANCH  19  28
ENDBRANCH   1  19
TORSDOF 4
ENDMDL
MODEL 3
REMARK VINA RESULT:      -9.1      1.595      2.276
REMARK  Name = 
REMARK  4 active torsions:
REMARK  status: ('A' for Active; 'I' for Inactive)
REMARK    1  A    between atoms: C_6  and  N_7
REMARK    2  A    between atoms: N_7  and  C_9
REMARK    3  A    between atoms: N_14  and  C_15
REMARK    4  A    between atoms: C_20  and  S_21
REMARK                            x       y       z     vdW  Elec       q    Type
REMARK                         _______ _______ _______ _____ _____    ______ ____
ROOT
ATOM      1  C   UNL     1       0.863   5.608  -5.990  0.00  0.00    +0.140 A 
ATOM      2  N   UNL     1       1.377   6.397  -6.949  0.00  0.00    -0.197 NA
ATOM      3  C   UNL     1       2.518   6.077  -7.599  0.00  0.00    +0.242 A 
ATOM      4  N   UNL     1       3.165   7.016  -8.437  0.00  0.00    -0.178 NA
ATOM      5  N   UNL     1       2.962   4.821  -7.505  0.00  0.00    -0.211 NA
ATOM      6  C   UNL     1       2.189   3.881  -6.916  0.00  0.00    +0.105 A 
ATOM      7  C   UNL     1       1.178   4.263  -6.060  0.00  0.00    +0.055 A 
ENDROOT
BRANCH   4   8
ATOM      8  C   UNL     1       3.676   6.618  -9.704  0.00  0.00    +0.075 A 
ATOM      9  C   UNL     1       5.007   6.249  -9.851  0.00  0.00    +0.036 A 
ATOM     10  C   UNL     1       5.416   5.946 -11.137  0.00  0.00    +0.122 A 
ATOM     11  C   UNL     1       4.503   5.654 -12.124  0.00  0.00    -0.003 A 
ATOM     12  C   UNL     1       4.914   5.362 -13.514  0.00  0.00    +0.032 C 
ATOM     13  C   UNL     1       3.150   5.698 -11.856  0.00  0.00    -0.002 A 
ATOM     14  C   UNL     1       2.773   6.070 -10.590  0.00  0.00    +0.016 A 
BRANCH  10  15
ATOM     15  S   UNL     1       7.113   5.728 -11.550  0.00  0.00    +0.093 S 
ATOM     16  O   UNL     1       7.582   7.019 -12.141  0.00  0.00    -0.150 OA
ATOM     17  O   UNL     1       7.260   4.587 -12.533  0.00  0.00    -0.150 OA
ATOM     18  N   UNL     1       7.972   5.392 -10.084  0.00  0.00    +0.039 NA
ENDBRANCH  10  15
ENDBRANCH   4   8
BRANCH   1  19
ATOM     19  N   UNL     1       0.242   6.174  -4.837  0.00  0.00    -0.270 N 
ATOM     20  C   UNL     1      -1.088   6.717  -5.026  0.00  0.00    +0.119 C 
BRANCH  19  28
ATOM     21  C   UNL     1       0.321   7.796   1.146  0.00  0.00    +0.052 C 
ATOM     22  C   UNL     1       1.367   7.275   0.212  0.00  0.00    +0.057 A 
ATOM     23  N   UNL     1       2.507   7.947  -0.081  0.00  0.00    -0.253 N 
ATOM     24  C   UNL     1       2.955   9.185   0.550  0.00  0.00    +0.153 C 
ATOM     25  N   UNL     1       3.093   7.360  -1.125  0.00  0.00    -0.170 NA
ATOM     26  C   UNL     1       2.185   6.597  -1.781  0.00  0.00    +0.103 A 
ATOM     27  C   UNL     1       1.974   6.276  -3.117  0.00  0.00    +0.036 A 
ATOM     28  C   UNL     1       0.738   5.812  -3.548  0.00  0.00    +0.054 A 
ATOM     29  C   UNL     1      -0.072   5.265  -2.569  0.00  0.00    +0.015 A 
ATOM     30  C   UNL     1       0.105   5.610  -1.235  0.00  0.00    +0.004 A 
ATOM     31  C   UNL     1       1.190   6.379  -0.836  0.00  0.00    +0.033 A 
ENDBRANCH  19  28
ENDBRANCH   1  19
TORSDOF 4
ENDMDL
MODEL 4
REMARK VINA RESULT:      -9.1      5.069      9.868
REMARK  Name = 
REMARK  4 active torsions:
REMARK  status: ('A' for Active; 'I' for Inactive)
REMARK    1  A    between atoms: C_6  and  N_7
REMARK    2  A    between atoms: N_7  and  C_9
REMARK    3  A    between atoms: N_14  and  C_15
REMARK    4  A    between atoms: C_20  and  S_21
REMARK                            x       y       z     vdW  Elec       q    Type
REMARK                         _______ _______ _______ _____ _____    ______ ____
ROOT
ATOM      1  C   UNL     1       3.136   4.929  -6.401  0.00  0.00    +0.140 A 
ATOM      2  N   UNL     1       3.987   5.599  -5.604  0.00  0.00    -0.197 NA
ATOM      3  C   UNL     1       3.547   6.439  -4.639  0.00  0.00    +0.242 A 
ATOM      4  N   UNL     1       4.441   7.303  -3.966  0.00  0.00    -0.178 NA
ATOM      5  N   UNL     1       2.265   6.357  -4.274  0.00  0.00    -0.211 NA
ATOM      6  C   UNL     1       1.498   5.348  -4.745  0.00  0.00    +0.105 A 
ATOM      7  C   UNL     1       1.877   4.675  -5.887  0.00  0.00    +0.055 A 
ENDROOT
BRANCH   4   8
ATOM      8  C   UNL     1       4.359   7.467  -2.554  0.00  0.00    +0.075 A 
ATOM      9  C   UNL     1       3.777   8.600  -2.001  0.00  0.00    +0.036 A 
ATOM     10  C   UNL     1       3.811   8.690  -0.622  0.00  0.00    +0.122 A 
ATOM     11  C   UNL     1       4.046   7.582   0.158  0.00  0.00    -0.003 A 
ATOM     12  C   UNL     1       4.121   7.658   1.632  0.00  0.00    +0.032 C 
ATOM     13  C   UNL     1       4.293   6.357  -0.429  0.00  0.00    -0.002 A 
ATOM     14  C   UNL     1       4.322   6.313  -1.800  0.00  0.00    +0.016 A 
BRANCH  10  15
ATOM     15  S   UNL     1       3.373  10.167   0.229  0.00  0.00    +0.093 S 
ATOM     16  O   UNL     1       3.391  11.269  -0.783  0.00  0.00    -0.150 OA
ATOM     17  O   UNL     1       4.361  10.431   1.344  0.00  0.00    -0.150 OA
ATOM     18  N   UNL     1       1.773   9.957   0.859  0.00  0.00    +0.039 NA
ENDBRANCH  10  15
ENDBRANCH   4   8
BRANCH   1  19
ATOM     19  N   UNL     1       3.442   4.719  -7.778  0.00  0.00    -0.270 N 
ATOM     20  C   UNL     1       2.612   3.760  -8.480  0.00  0.00    +0.119 C 
BRANCH  19  28
ATOM     21  C   UNL     1       5.538   6.466 -13.344  0.00  0.00    +0.052 C 
ATOM     22  C   UNL     1       6.152   6.437 -11.981  0.00  0.00    +0.057 A 
ATOM     23  N   UNL     1       7.268   5.729 -11.680  0.00  0.00    -0.253 N 
ATOM     24  C   UNL     1       8.106   5.011 -12.635  0.00  0.00    +0.153 C 
ATOM     25  N   UNL     1       7.407   5.693 -10.355  0.00  0.00    -0.170 NA
ATOM     26  C   UNL     1       6.220   5.986  -9.769  0.00  0.00    +0.103 A 
ATOM     27  C   UNL     1       5.578   5.557  -8.612  0.00  0.00    +0.036 A 
ATOM     28  C   UNL     1       4.205   5.708  -8.466  0.00  0.00    +0.054 A 
ATOM     29  C   UNL     1       3.620   6.674  -9.265  0.00  0.00    +0.015 A 
ATOM     30  C   UNL     1       4.233   7.080 -10.443  0.00  0.00    +0.004 A 
ATOM     31  C   UNL     1       5.514   6.651 -10.764  0.00  0.00    +0.033 A 
ENDBRANCH  19  28
ENDBRANCH   1  19
TORSDOF 4
ENDMDL
MODEL 5
REMARK VINA RESULT:      -9.1      4.649      9.811
REMARK  Name = 
REMARK  4 active torsions:
REMARK  status: ('A' for Active; 'I' for Inactive)
REMARK    1  A    between atoms: C_6  and  N_7
REMARK    2  A    between atoms: N_7  and  C_9
REMARK    3  A    between atoms: N_14  and  C_15
REMARK    4  A    between atoms: C_20  and  S_21
REMARK                            x       y       z     vdW  Elec       q    Type
REMARK                         _______ _______ _______ _____ _____    ______ ____
ROOT
ATOM      1  C   UNL     1       1.579   4.971  -8.373  0.00  0.00    +0.140 A 
ATOM      2  N   UNL     1       0.620   5.552  -7.631  0.00  0.00    -0.197 NA
ATOM      3  C   UNL     1       0.169   4.993  -6.485  0.00  0.00    +0.242 A 
ATOM      4  N   UNL     1      -0.987   5.492  -5.840  0.00  0.00    -0.178 NA
ATOM      5  N   UNL     1       0.901   4.024  -5.930  0.00  0.00    -0.211 NA
ATOM      6  C   UNL     1       2.130   3.748  -6.423  0.00  0.00    +0.105 A 
ATOM      7  C   UNL     1       2.457   4.135  -7.705  0.00  0.00    +0.055 A 
ENDROOT
BRANCH   4   8
ATOM      8  C   UNL     1      -1.007   5.660  -4.427  0.00  0.00    +0.075 A 
ATOM      9  C   UNL     1       0.148   5.997  -3.733  0.00  0.00    +0.036 A 
ATOM     10  C   UNL     1       0.032   6.067  -2.357  0.00  0.00    +0.122 A 
ATOM     11  C   UNL     1      -1.198   6.178  -1.751  0.00  0.00    -0.003 A 
ATOM     12  C   UNL     1      -1.350   6.219  -0.281  0.00  0.00    +0.032 C 
ATOM     13  C   UNL     1      -2.351   6.182  -2.510  0.00  0.00    -0.002 A 
ATOM     14  C   UNL     1      -2.208   6.041  -3.867  0.00  0.00    +0.016 A 
BRANCH  10  15
ATOM     15  S   UNL     1       1.438   6.209  -1.308  0.00  0.00    +0.093 S 
ATOM     16  O   UNL     1       1.614   4.882  -0.640  0.00  0.00    -0.150 OA
ATOM     17  O   UNL     1       1.214   7.309  -0.294  0.00  0.00    -0.150 OA
ATOM     18  N   UNL     1       2.807   6.562  -2.309  0.00  0.00    +0.039 NA
ENDBRANCH  10  15
ENDBRANCH   4   8
BRANCH   1  19
ATOM     19  N   UNL     1       1.529   5.022  -9.797  0.00  0.00    -0.270 N 
ATOM     20  C   UNL     1       0.317   4.522 -10.415  0.00  0.00    +0.119 C 
BRANCH  19  28
ATOM     21  C   UNL     1       6.441   5.250 -13.573  0.00  0.00    +0.052 C 
ATOM     22  C   UNL     1       6.045   6.028 -12.358  0.00  0.00    +0.057 A 
ATOM     23  N   UNL     1       6.794   6.081 -11.230  0.00  0.00    -0.253 N 
ATOM     24  C   UNL     1       8.131   5.519 -11.066  0.00  0.00    +0.153 C 
ATOM     25  N   UNL     1       6.061   6.622 -10.256  0.00  0.00    -0.170 NA
ATOM     26  C   UNL     1       4.748   6.542 -10.582  0.00  0.00    +0.103 A 
ATOM     27  C   UNL     1       3.579   6.349  -9.855  0.00  0.00    +0.036 A 
ATOM     28  C   UNL     1       2.422   5.901 -10.480  0.00  0.00    +0.054 A 
ATOM     29  C   UNL     1       2.360   6.106 -11.847  0.00  0.00    +0.015 A 
ATOM     30  C   UNL     1       3.525   6.261 -12.588  0.00  0.00    +0.004 A 
ATOM     31  C   UNL     1       4.759   6.375 -11.962  0.00  0.00    +0.033 A 
ENDBRANCH  19  28
ENDBRANCH   1  19
TORSDOF 4
ENDMDL
MODEL 6
REMARK VINA RESULT:      -8.9      2.028      2.561
REMARK  Name = 
REMARK  4 active torsions:
REMARK  status: ('A' for Active; 'I' for Inactive)
REMARK    1  A    between atoms: C_6  and  N_7
REMARK    2  A    between atoms: N_7  and  C_9
REMARK    3  A    between atoms: N_14  and  C_15
REMARK    4  A    between atoms: C_20  and  S_21
REMARK                            x       y       z     vdW  Elec       q    Type
REMARK                         _______ _______ _______ _____ _____    ______ ____
ROOT
ATOM      1  C   UNL     1       2.538   5.334  -6.539  0.00  0.00    +0.140 A 
ATOM      2  N   UNL     1       3.637   5.855  -7.114  0.00  0.00    -0.197 NA
ATOM      3  C   UNL     1       4.367   5.159  -8.014  0.00  0.00    +0.242 A 
ATOM      4  N   UNL     1       5.635   5.626  -8.436  0.00  0.00    -0.178 NA
ATOM      5  N   UNL     1       3.816   4.075  -8.565  0.00  0.00    -0.211 NA
ATOM      6  C   UNL     1       2.511   3.801  -8.342  0.00  0.00    +0.105 A 
ATOM      7  C   UNL     1       1.871   4.355  -7.254  0.00  0.00    +0.055 A 
ENDROOT
BRANCH   4   8
ATOM      8  C   UNL     1       5.997   5.580  -9.812  0.00  0.00    +0.075 A 
ATOM      9  C   UNL     1       5.044   5.760 -10.806  0.00  0.00    +0.036 A 
ATOM     10  C   UNL     1       5.491   5.628 -12.108  0.00  0.00    +0.122 A 
ATOM     11  C   UNL     1       6.830   5.699 -12.412  0.00  0.00    -0.003 A 
ATOM     12  C   UNL     1       7.335   5.525 -13.790  0.00  0.00    +0.032 C 
ATOM     13  C   UNL     1       7.764   5.865 -11.408  0.00  0.00    -0.002 A 
ATOM     14  C   UNL     1       7.296   5.924 -10.120  0.00  0.00    +0.016 A 
BRANCH  10  15
ATOM     15  S   UNL     1       4.381   5.552 -13.472  0.00  0.00    +0.093 S 
ATOM     16  O   UNL     1       4.277   4.112 -13.864  0.00  0.00    -0.150 OA
ATOM     17  O   UNL     1       4.910   6.394 -14.612  0.00  0.00    -0.150 OA
ATOM     18  N   UNL     1       2.844   6.139 -12.932  0.00  0.00    +0.039 NA
ENDBRANCH  10  15
ENDBRANCH   4   8
BRANCH   1  19
ATOM     19  N   UNL     1       2.236   5.602  -5.171  0.00  0.00    -0.270 N 
ATOM     20  C   UNL     1       0.994   5.049  -4.670  0.00  0.00    +0.119 C 
BRANCH  19  28
ATOM     21  C   UNL     1       3.656   7.000   0.699  0.00  0.00    +0.052 C 
ATOM     22  C   UNL     1       4.047   7.592  -0.619  0.00  0.00    +0.057 A 
ATOM     23  N   UNL     1       3.798   8.878  -0.963  0.00  0.00    -0.253 N 
ATOM     24  C   UNL     1       3.248   9.906  -0.083  0.00  0.00    +0.153 C 
ATOM     25  N   UNL     1       4.020   9.022  -2.269  0.00  0.00    -0.170 NA
ATOM     26  C   UNL     1       4.001   7.806  -2.867  0.00  0.00    +0.103 A 
ATOM     27  C   UNL     1       3.578   7.343  -4.107  0.00  0.00    +0.036 A 
ATOM     28  C   UNL     1       3.296   5.996  -4.302  0.00  0.00    +0.054 A 
ATOM     29  C   UNL     1       3.879   5.125  -3.400  0.00  0.00    +0.015 A 
ATOM     30  C   UNL     1       4.269   5.569  -2.142  0.00  0.00    +0.004 A 
ATOM     31  C   UNL     1       4.233   6.920  -1.822  0.00  0.00    +0.033 A 
ENDBRANCH  19  28
ENDBRANCH   1  19
TORSDOF 4
ENDMDL
MODEL 7
REMARK VINA RESULT:      -8.9      2.048      2.699
REMARK  Name = 
REMARK  4 active torsions:
REMARK  status: ('A' for Active; 'I' for Inactive)
REMARK    1  A    between atoms: C_6  and  N_7
REMARK    2  A    between atoms: N_7  and  C_9
REMARK    3  A    between atoms: N_14  and  C_15
REMARK    4  A    between atoms: C_20  and  S_21
REMARK                            x       y       z     vdW  Elec       q    Type
REMARK                         _______ _______ _______ _____ _____    ______ ____
ROOT
ATOM      1  C   UNL     1       2.652   5.547  -6.560  0.00  0.00    +0.140 A 
ATOM      2  N   UNL     1       3.734   6.056  -7.176  0.00  0.00    -0.197 NA
ATOM      3  C   UNL     1       4.456   5.332  -8.061  0.00  0.00    +0.242 A 
ATOM      4  N   UNL     1       5.710   5.793  -8.525  0.00  0.00    -0.178 NA
ATOM      5  N   UNL     1       3.907   4.221  -8.558  0.00  0.00    -0.211 NA
ATOM      6  C   UNL     1       2.608   3.943  -8.300  0.00  0.00    +0.105 A 
ATOM      7  C   UNL     1       1.982   4.534  -7.224  0.00  0.00    +0.055 A 
ENDROOT
BRANCH   4   8
ATOM      8  C   UNL     1       6.048   5.696  -9.904  0.00  0.00    +0.075 A 
ATOM      9  C   UNL     1       5.078   5.844 -10.887  0.00  0.00    +0.036 A 
ATOM     10  C   UNL     1       5.501   5.663 -12.191  0.00  0.00    +0.122 A 
ATOM     11  C   UNL     1       6.835   5.717 -12.520  0.00  0.00    -0.003 A 
ATOM     12  C   UNL     1       7.315   5.491 -13.900  0.00  0.00    +0.032 C 
ATOM     13  C   UNL     1       7.787   5.916 -11.540  0.00  0.00    -0.002 A 
ATOM     14  C   UNL     1       7.343   6.023 -10.247  0.00  0.00    +0.016 A 
BRANCH  10  15
ATOM     15  S   UNL     1       4.368   5.542 -13.532  0.00  0.00    +0.093 S 
ATOM     16  O   UNL     1       4.293   4.095 -13.904  0.00  0.00    -0.150 OA
ATOM     17  O   UNL     1       4.852   6.383 -14.692  0.00  0.00    -0.150 OA
ATOM     18  N   UNL     1       2.826   6.096 -12.969  0.00  0.00    +0.039 NA
ENDBRANCH  10  15
ENDBRANCH   4   8
BRANCH   1  19
ATOM     19  N   UNL     1       2.371   5.866  -5.199  0.00  0.00    -0.270 N 
ATOM     20  C   UNL     1       3.010   7.057  -4.675  0.00  0.00    +0.119 C 
BRANCH  19  28
ATOM     21  C   UNL     1      -2.875   7.181  -2.170  0.00  0.00    +0.052 C 
ATOM     22  C   UNL     1      -1.831   6.124  -1.999  0.00  0.00    +0.057 A 
ATOM     23  N   UNL     1      -1.106   5.969  -0.864  0.00  0.00    -0.253 N 
ATOM     24  C   UNL     1      -1.311   6.694   0.386  0.00  0.00    +0.153 C 
ATOM     25  N   UNL     1      -0.095   5.136  -1.114  0.00  0.00    -0.170 NA
ATOM     26  C   UNL     1       0.114   5.067  -2.451  0.00  0.00    +0.103 A 
ATOM     27  C   UNL     1       1.243   4.923  -3.249  0.00  0.00    +0.036 A 
ATOM     28  C   UNL     1       1.216   5.294  -4.588  0.00  0.00    +0.054 A 
ATOM     29  C   UNL     1      -0.038   5.357  -5.168  0.00  0.00    +0.015 A 
ATOM     30  C   UNL     1      -1.169   5.541  -4.382  0.00  0.00    +0.004 A 
ATOM     31  C   UNL     1      -1.088   5.504  -2.997  0.00  0.00    +0.033 A 
ENDBRANCH  19  28
ENDBRANCH   1  19
TORSDOF 4
ENDMDL
MODEL 8
REMARK VINA RESULT:      -8.9      2.036      2.577
REMARK  Name = 
REMARK  4 active torsions:
REMARK  status: ('A' for Active; 'I' for Inactive)
REMARK    1  A    between atoms: C_6  and  N_7
REMARK    2  A    between atoms: N_7  and  C_9
REMARK    3  A    between atoms: N_14  and  C_15
REMARK    4  A    between atoms: C_20  and  S_21
REMARK                            x       y       z     vdW  Elec       q    Type
REMARK                         _______ _______ _______ _____ _____    ______ ____
ROOT
ATOM      1  C   UNL     1       0.352   5.392  -6.188  0.00  0.00    +0.140 A 
ATOM      2  N   UNL     1       0.649   6.104  -7.289  0.00  0.00    -0.197 NA
ATOM      3  C   UNL     1       1.860   6.022  -7.884  0.00  0.00    +0.242 A 
ATOM      4  N   UNL     1       2.234   6.936  -8.897  0.00  0.00    -0.178 NA
ATOM      5  N   UNL     1       2.650   4.997  -7.559  0.00  0.00    -0.211 NA
ATOM      6  C   UNL     1       2.166   3.997  -6.789  0.00  0.00    +0.105 A 
ATOM      7  C   UNL     1       1.053   4.213  -6.005  0.00  0.00    +0.055 A 
ENDROOT
BRANCH   4   8
ATOM      8  C   UNL     1       2.893   6.478 -10.073  0.00  0.00    +0.075 A 
ATOM      9  C   UNL     1       2.199   6.331 -11.267  0.00  0.00    +0.036 A 
ATOM     10  C   UNL     1       2.918   5.814 -12.329  0.00  0.00    +0.122 A 
ATOM     11  C   UNL     1       4.293   5.810 -12.322  0.00  0.00    -0.003 A 
ATOM     12  C   UNL     1       5.084   5.232 -13.429  0.00  0.00    +0.032 C 
ATOM     13  C   UNL     1       4.986   6.290 -11.229  0.00  0.00    -0.002 A 
ATOM     14  C   UNL     1       4.245   6.732 -10.162  0.00  0.00    +0.016 A 
BRANCH  10  15
ATOM     15  S   UNL     1       2.140   5.307 -13.824  0.00  0.00    +0.093 S 
ATOM     16  O   UNL     1       0.687   5.131 -13.517  0.00  0.00    -0.150 OA
ATOM     17  O   UNL     1       2.759   4.016 -14.313  0.00  0.00    -0.150 OA
ATOM     18  N   UNL     1       2.358   6.574 -14.986  0.00  0.00    +0.039 NA
ENDBRANCH  10  15
ENDBRANCH   4   8
BRANCH   1  19
ATOM     19  N   UNL     1      -0.456   5.953  -5.154  0.00  0.00    -0.270 N 
ATOM     20  C   UNL     1      -1.704   6.559  -5.573  0.00  0.00    +0.119 C 
BRANCH  19  28
ATOM     21  C   UNL     1      -0.667   7.773   0.768  0.00  0.00    +0.052 C 
ATOM     22  C   UNL     1       0.309   6.958  -0.019  0.00  0.00    +0.057 A 
ATOM     23  N   UNL     1       1.612   7.299  -0.174  0.00  0.00    -0.253 N 
ATOM     24  C   UNL     1       2.289   8.407   0.492  0.00  0.00    +0.153 C 
ATOM     25  N   UNL     1       2.143   6.533  -1.127  0.00  0.00    -0.170 NA
ATOM     26  C   UNL     1       1.152   6.001  -1.883  0.00  0.00    +0.103 A 
ATOM     27  C   UNL     1       1.025   5.684  -3.231  0.00  0.00    +0.036 A 
ATOM     28  C   UNL     1      -0.229   5.536  -3.809  0.00  0.00    +0.054 A 
ATOM     29  C   UNL     1      -1.264   5.261  -2.933  0.00  0.00    +0.015 A 
ATOM     30  C   UNL     1      -1.163   5.610  -1.592  0.00  0.00    +0.004 A 
ATOM     31  C   UNL     1       0.030   6.090  -1.069  0.00  0.00    +0.033 A 
ENDBRANCH  19  28
ENDBRANCH   1  19
TORSDOF 4
ENDMDL
MODEL 9
REMARK VINA RESULT:      -8.9      1.982      2.802
REMARK  Name = 
REMARK  4 active torsions:
REMARK  status: ('A' for Active; 'I' for Inactive)
REMARK    1  A    between atoms: C_6  and  N_7
REMARK    2  A    between atoms: N_7  and  C_9
REMARK    3  A    between atoms: N_14  and  C_15
REMARK    4  A    between atoms: C_20  and  S_21
REMARK                            x       y       z     vdW  Elec       q    Type
REMARK                         _______ _______ _______ _____ _____    ______ ____
ROOT
ATOM      1  C   UNL     1       0.323   6.116  -5.642  0.00  0.00    +0.140 A 
ATOM      2  N   UNL     1       0.808   6.830  -6.673  0.00  0.00    -0.197 NA
ATOM      3  C   UNL     1       1.968   6.500  -7.284  0.00  0.00    +0.242 A 
ATOM      4  N   UNL     1       2.577   7.381  -8.209  0.00  0.00    -0.178 NA
ATOM      5  N   UNL     1       2.468   5.282  -7.065  0.00  0.00    -0.211 NA
ATOM      6  C   UNL     1       1.734   4.369  -6.389  0.00  0.00    +0.105 A 
ATOM      7  C   UNL     1       0.700   4.786  -5.578  0.00  0.00    +0.055 A 
ENDROOT
BRANCH   4   8
ATOM      8  C   UNL     1       3.116   6.884  -9.429  0.00  0.00    +0.075 A 
ATOM      9  C   UNL     1       4.469   6.595  -9.544  0.00  0.00    +0.036 A 
ATOM     10  C   UNL     1       4.899   6.183 -10.793  0.00  0.00    +0.122 A 
ATOM     11  C   UNL     1       4.010   5.723 -11.736  0.00  0.00    -0.003 A 
ATOM     12  C   UNL     1       4.440   5.311 -13.088  0.00  0.00    +0.032 C 
ATOM     13  C   UNL     1       2.656   5.702 -11.465  0.00  0.00    -0.002 A 
ATOM     14  C   UNL     1       2.253   6.181 -10.244  0.00  0.00    +0.016 A 
BRANCH  10  15
ATOM     15  S   UNL     1       6.607   6.039 -11.191  0.00  0.00    +0.093 S 
ATOM     16  O   UNL     1       7.012   7.331 -11.826  0.00  0.00    -0.150 OA
ATOM     17  O   UNL     1       6.819   4.874 -12.133  0.00  0.00    -0.150 OA
ATOM     18  N   UNL     1       7.474   5.801  -9.710  0.00  0.00    +0.039 NA
ENDBRANCH  10  15
ENDBRANCH   4   8
BRANCH   1  19
ATOM     19  N   UNL     1      -0.331   6.763  -4.552  0.00  0.00    -0.270 N 
ATOM     20  C   UNL     1      -1.190   7.880  -4.893  0.00  0.00    +0.119 C 
BRANCH  19  28
ATOM     21  C   UNL     1      -2.222   7.258   1.331  0.00  0.00    +0.052 C 
ATOM     22  C   UNL     1      -1.028   6.627   0.688  0.00  0.00    +0.057 A 
ATOM     23  N   UNL     1       0.248   6.985   0.971  0.00  0.00    -0.253 N 
ATOM     24  C   UNL     1       0.661   7.918   2.014  0.00  0.00    +0.153 C 
ATOM     25  N   UNL     1       1.056   6.441   0.061  0.00  0.00    -0.170 NA
ATOM     26  C   UNL     1       0.335   6.091  -1.032  0.00  0.00    +0.103 A 
ATOM     27  C   UNL     1       0.591   6.075  -2.398  0.00  0.00    +0.036 A 
ATOM     28  C   UNL     1      -0.452   6.063  -3.315  0.00  0.00    +0.054 A 
ATOM     29  C   UNL     1      -1.668   5.611  -2.834  0.00  0.00    +0.015 A 
ATOM     30  C   UNL     1      -1.950   5.661  -1.474  0.00  0.00    +0.004 A 
ATOM     31  C   UNL     1      -0.969   6.009  -0.556  0.00  0.00    +0.033 A 
ENDBRANCH  19  28
ENDBRANCH   1  19
TORSDOF 4
ENDMDL
