MODEL 1
REMARK VINA RESULT:      -8.3      0.000      0.000
REMARK  Name = 
REMARK  5 active torsions:
REMARK  status: ('A' for Active; 'I' for Inactive)
REMARK    1  A    between atoms: C_2  and  O_4
REMARK    2  A    between atoms: O_4  and  C_5
REMARK    3  A    between atoms: C_5  and  C_6
REMARK    4  A    between atoms: C_23  and  C_24
REMARK    5  A    between atoms: C_27  and  N_28
REMARK                            x       y       z     vdW  Elec       q    Type
REMARK                         _______ _______ _______ _____ _____    ______ ____
ROOT
ATOM      1  C   UNL     1       5.610   6.239 -10.070  0.00  0.00    +0.186 C 
ATOM      2  C   UNL     1       5.059   5.590  -8.925  0.00  0.00    +0.041 C 
ATOM      3  C   UNL     1       3.496   5.632  -9.366  0.00  0.00    +0.008 C 
ATOM      4  C   UNL     1       3.182   4.364  -8.243  0.00  0.00    +0.019 C 
ATOM      5  C   UNL     1       2.664   5.426  -7.162  0.00  0.00    -0.045 C 
ATOM      6  C   UNL     1       3.681   6.706  -7.095  0.00  0.00    +0.040 C 
ATOM      7  C   UNL     1       1.412   5.716  -7.043  0.00  0.00    -0.033 C 
ATOM      8  C   UNL     1       0.433   5.746  -8.148  0.00  0.00    -0.024 C 
ATOM      9  C   UNL     1      -0.810   5.388  -7.822  0.00  0.00    +0.033 C 
ATOM     10  C   UNL     1      -1.233   5.876  -6.503  0.00  0.00    +0.173 C 
ATOM     11  C   UNL     1      -0.276   6.128  -5.394  0.00  0.00    +0.074 C 
ATOM     12  O   UNL     1      -2.462   5.851  -6.189  0.00  0.00    -0.291 OA
ATOM     13  C   UNL     1       1.069   5.190  -9.390  0.00  0.00    +0.026 C 
ATOM     14  C   UNL     1       1.066   6.638  -5.911  0.00  0.00    +0.034 C 
ATOM     15  C   UNL     1       1.729   3.960  -8.890  0.00  0.00    +0.009 C 
ATOM     16  C   UNL     1       3.834   4.650 -10.620  0.00  0.00    +0.004 C 
ATOM     17  C   UNL     1       5.504   4.129  -9.072  0.00  0.00    +0.004 C 
ATOM     18  C   UNL     1       5.049   5.890  -7.557  0.00  0.00    +0.012 C 
ATOM     19  C   UNL     1       4.967   5.478 -11.232  0.00  0.00    +0.047 C 
ENDROOT
BRANCH   6  20
ATOM     20  C   UNL     1       3.981   6.472  -5.517  0.00  0.00    -0.019 A 
ATOM     21  C   UNL     1       4.292   5.217  -5.124  0.00  0.00    -0.003 A 
ATOM     22  C   UNL     1       4.637   5.044  -3.789  0.00  0.00    +0.014 A 
ATOM     23  C   UNL     1       4.477   6.081  -2.887  0.00  0.00    +0.048 A 
ATOM     24  C   UNL     1       4.335   7.362  -3.398  0.00  0.00    +0.014 A 
ATOM     25  C   UNL     1       4.159   7.592  -4.760  0.00  0.00    -0.003 A 
BRANCH  23  26
ATOM     26  N   UNL     1       4.206   5.759  -1.518  0.00  0.00    -0.304 N 
ATOM     27  C   UNL     1       3.638   4.469  -1.189  0.00  0.00    +0.112 C 
ATOM     28  C   UNL     1       3.734   6.872  -0.698  0.00  0.00    +0.112 C 
ENDBRANCH  23  26
ENDBRANCH   6  20
BRANCH   1  29
ATOM     29  C   UNL     1       7.098   6.043 -10.065  0.00  0.00    +0.187 C 
ATOM     30  O   UNL     1       7.657   6.292  -9.033  0.00  0.00    -0.292 OA
ATOM     31  C   UNL     1       7.645   5.095 -11.055  0.00  0.00    +0.076 C 
ENDBRANCH   1  29
BRANCH   1  32
ATOM     32  O   UNL     1       5.383   7.590 -10.311  0.00  0.00    -0.449 OA
BRANCH  32  34
ATOM     33  C   UNL     1       6.188   7.650 -12.629  0.00  0.00    +0.121 C 
ATOM     34  C   UNL     1       6.109   8.181 -11.354  0.00  0.00    +0.318 C 
ATOM     35  O   UNL     1       6.993   9.026 -11.017  0.00  0.00    -0.250 OA
ENDBRANCH  32  34
ENDBRANCH   1  32
TORSDOF 5
ENDMDL
MODEL 2
REMARK VINA RESULT:      -8.3      3.320      7.810
REMARK  Name = 
REMARK  5 active torsions:
REMARK  status: ('A' for Active; 'I' for Inactive)
REMARK    1  A    between atoms: C_2  and  O_4
REMARK    2  A    between atoms: O_4  and  C_5
REMARK    3  A    between atoms: C_5  and  C_6
REMARK    4  A    between atoms: C_23  and  C_24
REMARK    5  A    between atoms: C_27  and  N_28
REMARK                            x       y       z     vdW  Elec       q    Type
REMARK                         _______ _______ _______ _____ _____    ______ ____
ROOT
ATOM      1  C   UNL     1       2.274   5.681  -5.618  0.00  0.00    +0.186 C 
ATOM      2  C   UNL     1       2.414   5.132  -6.928  0.00  0.00    +0.041 C 
ATOM      3  C   UNL     1       4.001   5.418  -7.130  0.00  0.00    +0.008 C 
ATOM      4  C   UNL     1       4.022   4.220  -8.367  0.00  0.00    +0.019 C 
ATOM      5  C   UNL     1       3.913   5.356  -9.492  0.00  0.00    -0.045 C 
ATOM      6  C   UNL     1       2.780   6.460  -9.071  0.00  0.00    +0.040 C 
ATOM      7  C   UNL     1       4.960   5.840 -10.071  0.00  0.00    -0.033 C 
ATOM      8  C   UNL     1       6.281   6.019  -9.436  0.00  0.00    -0.024 C 
ATOM      9  C   UNL     1       7.330   5.863 -10.244  0.00  0.00    +0.033 C 
ATOM     10  C   UNL     1       7.123   6.418 -11.588  0.00  0.00    +0.173 C 
ATOM     11  C   UNL     1       5.779   6.520 -12.216  0.00  0.00    +0.074 C 
ATOM     12  O   UNL     1       8.116   6.589 -12.357  0.00  0.00    -0.291 OA
ATOM     13  C   UNL     1       6.275   5.364  -8.085  0.00  0.00    +0.026 C 
ATOM     14  C   UNL     1       4.693   6.811 -11.184  0.00  0.00    +0.034 C 
ATOM     15  C   UNL     1       5.654   4.048  -8.368  0.00  0.00    +0.009 C 
ATOM     16  C   UNL     1       4.331   4.389  -5.912  0.00  0.00    +0.004 C 
ATOM     17  C   UNL     1       2.277   3.618  -6.716  0.00  0.00    +0.004 C 
ATOM     18  C   UNL     1       1.839   5.436  -8.168  0.00  0.00    +0.012 C 
ATOM     19  C   UNL     1       3.427   5.025  -4.853  0.00  0.00    +0.047 C 
ENDROOT
BRANCH   6  20
ATOM     20  C   UNL     1       1.917   6.189 -10.419  0.00  0.00    -0.019 A 
ATOM     21  C   UNL     1       1.379   4.959 -10.575  0.00  0.00    -0.003 A 
ATOM     22  C   UNL     1       0.566   4.765 -11.684  0.00  0.00    +0.014 A 
ATOM     23  C   UNL     1       0.482   5.736 -12.667  0.00  0.00    +0.048 A 
ATOM     24  C   UNL     1       0.907   7.016 -12.344  0.00  0.00    +0.014 A 
ATOM     25  C   UNL     1       1.577   7.286 -11.153  0.00  0.00    -0.003 A 
BRANCH  23  26
ATOM     26  N   UNL     1       0.217   5.325 -14.012  0.00  0.00    -0.304 N 
ATOM     27  C   UNL     1       0.423   3.943 -14.389  0.00  0.00    +0.112 C 
ATOM     28  C   UNL     1       0.556   6.306 -15.041  0.00  0.00    +0.112 C 
ENDBRANCH  23  26
ENDBRANCH   6  20
BRANCH   1  29
ATOM     29  C   UNL     1       0.951   5.252  -5.054  0.00  0.00    +0.187 C 
ATOM     30  O   UNL     1       0.970   4.838  -3.929  0.00  0.00    -0.292 OA
ATOM     31  C   UNL     1      -0.253   5.855  -5.659  0.00  0.00    +0.076 C 
ENDBRANCH   1  29
BRANCH   1  32
ATOM     32  O   UNL     1       2.383   7.050  -5.395  0.00  0.00    -0.449 OA
BRANCH  32  34
ATOM     33  C   UNL     1       2.953   7.661  -3.087  0.00  0.00    +0.121 C 
ATOM     34  C   UNL     1       3.294   7.464  -4.413  0.00  0.00    +0.318 C 
ATOM     35  O   UNL     1       4.363   8.005  -4.829  0.00  0.00    -0.250 OA
ENDBRANCH  32  34
ENDBRANCH   1  32
TORSDOF 5
ENDMDL
MODEL 3
REMARK VINA RESULT:      -8.0      4.261      7.832
REMARK  Name = 
REMARK  5 active torsions:
REMARK  status: ('A' for Active; 'I' for Inactive)
REMARK    1  A    between atoms: C_2  and  O_4
REMARK    2  A    between atoms: O_4  and  C_5
REMARK    3  A    between atoms: C_5  and  C_6
REMARK    4  A    between atoms: C_23  and  C_24
REMARK    5  A    between atoms: C_27  and  N_28
REMARK                            x       y       z     vdW  Elec       q    Type
REMARK                         _______ _______ _______ _____ _____    ______ ____
ROOT
ATOM      1  C   UNL     1       2.632   6.055  -3.406  0.00  0.00    +0.186 C 
ATOM      2  C   UNL     1       2.685   6.204  -1.987  0.00  0.00    +0.041 C 
ATOM      3  C   UNL     1       1.143   6.657  -1.746  0.00  0.00    +0.008 C 
ATOM      4  C   UNL     1       1.304   6.193  -0.095  0.00  0.00    +0.019 C 
ATOM      5  C   UNL     1       1.571   7.716   0.324  0.00  0.00    -0.045 C 
ATOM      6  C   UNL     1       2.628   8.410  -0.715  0.00  0.00    +0.040 C 
ATOM      7  C   UNL     1       0.617   8.485   0.729  0.00  0.00    -0.033 C 
ATOM      8  C   UNL     1      -0.782   8.429   0.262  0.00  0.00    -0.024 C 
ATOM      9  C   UNL     1      -1.703   8.746   1.173  0.00  0.00    +0.033 C 
ATOM     10  C   UNL     1      -1.305   9.857   2.047  0.00  0.00    +0.173 C 
ATOM     11  C   UNL     1       0.114  10.154   2.372  0.00  0.00    +0.074 C 
ATOM     12  O   UNL     1      -2.178  10.437   2.761  0.00  0.00    -0.291 OA
ATOM     13  C   UNL     1      -0.970   7.214  -0.599  0.00  0.00    +0.026 C 
ATOM     14  C   UNL     1       1.039   9.847   1.197  0.00  0.00    +0.034 C 
ATOM     15  C   UNL     1      -0.311   6.151   0.198  0.00  0.00    +0.009 C 
ATOM     16  C   UNL     1       0.643   5.198  -2.269  0.00  0.00    +0.004 C 
ATOM     17  C   UNL     1       2.794   4.765  -1.464  0.00  0.00    +0.004 C 
ATOM     18  C   UNL     1       3.432   7.020  -1.130  0.00  0.00    +0.012 C 
ATOM     19  C   UNL     1       1.383   5.194  -3.609  0.00  0.00    +0.047 C 
ENDROOT
BRANCH   6  20
ATOM     20  C   UNL     1       3.677   8.754   0.476  0.00  0.00    -0.019 A 
ATOM     21  C   UNL     1       3.936  10.058   0.717  0.00  0.00    -0.003 A 
ATOM     22  C   UNL     1       4.762  10.345   1.796  0.00  0.00    +0.014 A 
ATOM     23  C   UNL     1       5.428   9.327   2.456  0.00  0.00    +0.048 A 
ATOM     24  C   UNL     1       4.969   8.032   2.270  0.00  0.00    +0.014 A 
ATOM     25  C   UNL     1       4.008   7.727   1.309  0.00  0.00    -0.003 A 
BRANCH  23  26
ATOM     26  N   UNL     1       6.687   9.621   3.070  0.00  0.00    -0.304 N 
ATOM     27  C   UNL     1       7.435  10.784   2.642  0.00  0.00    +0.112 C 
ATOM     28  C   UNL     1       7.498   8.456   3.419  0.00  0.00    +0.112 C 
ENDBRANCH  23  26
ENDBRANCH   6  20
BRANCH   1  29
ATOM     29  C   UNL     1       3.862   5.324  -3.860  0.00  0.00    +0.187 C 
ATOM     30  O   UNL     1       3.673   4.303  -4.460  0.00  0.00    -0.292 OA
ATOM     31  C   UNL     1       5.088   6.127  -4.026  0.00  0.00    +0.076 C 
ENDBRANCH   1  29
BRANCH   1  32
ATOM     32  O   UNL     1       2.488   7.159  -4.241  0.00  0.00    -0.449 OA
BRANCH  32  34
ATOM     33  C   UNL     1       2.420   6.883  -6.679  0.00  0.00    +0.121 C 
ATOM     34  C   UNL     1       1.799   6.960  -5.445  0.00  0.00    +0.318 C 
ATOM     35  O   UNL     1       0.555   7.211  -5.430  0.00  0.00    -0.250 OA
ENDBRANCH  32  34
ENDBRANCH   1  32
TORSDOF 5
ENDMDL
MODEL 4
REMARK VINA RESULT:      -7.5      2.125      3.195
REMARK  Name = 
REMARK  5 active torsions:
REMARK  status: ('A' for Active; 'I' for Inactive)
REMARK    1  A    between atoms: C_2  and  O_4
REMARK    2  A    between atoms: O_4  and  C_5
REMARK    3  A    between atoms: C_5  and  C_6
REMARK    4  A    between atoms: C_23  and  C_24
REMARK    5  A    between atoms: C_27  and  N_28
REMARK                            x       y       z     vdW  Elec       q    Type
REMARK                         _______ _______ _______ _____ _____    ______ ____
ROOT
ATOM      1  C   UNL     1       2.257   5.683  -9.801  0.00  0.00    +0.186 C 
ATOM      2  C   UNL     1       2.205   5.287  -8.431  0.00  0.00    +0.041 C 
ATOM      3  C   UNL     1       0.597   5.405  -8.218  0.00  0.00    +0.008 C 
ATOM      4  C   UNL     1       0.741   4.375  -6.845  0.00  0.00    +0.019 C 
ATOM      5  C   UNL     1       0.728   5.646  -5.869  0.00  0.00    -0.045 C 
ATOM      6  C   UNL     1       1.712   6.815  -6.454  0.00  0.00    +0.040 C 
ATOM      7  C   UNL     1      -0.361   6.069  -5.322  0.00  0.00    -0.033 C 
ATOM      8  C   UNL     1      -1.703   6.010  -5.934  0.00  0.00    -0.024 C 
ATOM      9  C   UNL     1      -2.714   5.832  -5.082  0.00  0.00    +0.033 C 
ATOM     10  C   UNL     1      -2.555   6.569  -3.822  0.00  0.00    +0.173 C 
ATOM     11  C   UNL     1      -1.224   6.907  -3.251  0.00  0.00    +0.074 C 
ATOM     12  O   UNL     1      -3.550   6.714  -3.050  0.00  0.00    -0.291 OA
ATOM     13  C   UNL     1      -1.639   5.200  -7.196  0.00  0.00    +0.026 C 
ATOM     14  C   UNL     1      -0.198   7.194  -4.343  0.00  0.00    +0.034 C 
ATOM     15  C   UNL     1      -0.858   4.011  -6.775  0.00  0.00    +0.009 C 
ATOM     16  C   UNL     1       0.377   4.203  -9.293  0.00  0.00    +0.004 C 
ATOM     17  C   UNL     1       2.521   3.786  -8.463  0.00  0.00    +0.004 C 
ATOM     18  C   UNL     1       2.757   5.808  -7.255  0.00  0.00    +0.012 C 
ATOM     19  C   UNL     1       1.180   4.806 -10.448  0.00  0.00    +0.047 C 
ENDROOT
BRANCH   6  20
ATOM     20  C   UNL     1       2.622   6.817  -5.109  0.00  0.00    -0.019 A 
ATOM     21  C   UNL     1       2.349   5.880  -4.174  0.00  0.00    -0.003 A 
ATOM     22  C   UNL     1       3.191   5.830  -3.071  0.00  0.00    +0.014 A 
ATOM     23  C   UNL     1       4.135   6.821  -2.867  0.00  0.00    +0.048 A 
ATOM     24  C   UNL     1       4.469   7.623  -3.948  0.00  0.00    +0.014 A 
ATOM     25  C   UNL     1       3.752   7.579  -5.141  0.00  0.00    -0.003 A 
BRANCH  23  26
ATOM     26  N   UNL     1       4.515   7.136  -1.523  0.00  0.00    -0.304 N 
ATOM     27  C   UNL     1       4.589   6.079  -0.538  0.00  0.00    +0.112 C 
ATOM     28  C   UNL     1       4.028   8.419  -1.022  0.00  0.00    +0.112 C 
ENDBRANCH  23  26
ENDBRANCH   6  20
BRANCH   1  29
ATOM     29  C   UNL     1       3.614   5.349 -10.348  0.00  0.00    +0.187 C 
ATOM     30  O   UNL     1       3.630   4.833 -11.431  0.00  0.00    -0.292 OA
ATOM     31  C   UNL     1       4.751   6.129  -9.824  0.00  0.00    +0.076 C 
ENDBRANCH   1  29
BRANCH   1  32
ATOM     32  O   UNL     1       1.979   6.992 -10.184  0.00  0.00    -0.449 OA
BRANCH  32  34
ATOM     33  C   UNL     1       1.287   7.190 -12.531  0.00  0.00    +0.121 C 
ATOM     34  C   UNL     1       1.005   7.171 -11.177  0.00  0.00    +0.318 C 
ATOM     35  O   UNL     1      -0.096   7.677 -10.801  0.00  0.00    -0.250 OA
ENDBRANCH  32  34
ENDBRANCH   1  32
TORSDOF 5
ENDMDL
MODEL 5
REMARK VINA RESULT:      -6.6      3.019      5.616
REMARK  Name = 
REMARK  5 active torsions:
REMARK  status: ('A' for Active; 'I' for Inactive)
REMARK    1  A    between atoms: C_2  and  O_4
REMARK    2  A    between atoms: O_4  and  C_5
REMARK    3  A    between atoms: C_5  and  C_6
REMARK    4  A    between atoms: C_23  and  C_24
REMARK    5  A    between atoms: C_27  and  N_28
REMARK                            x       y       z     vdW  Elec       q    Type
REMARK                         _______ _______ _______ _____ _____    ______ ____
ROOT
ATOM      1  C   UNL     1       2.079   5.893  -9.702  0.00  0.00    +0.186 C 
ATOM      2  C   UNL     1       1.838   6.526  -8.446  0.00  0.00    +0.041 C 
ATOM      3  C   UNL     1       3.090   5.893  -7.625  0.00  0.00    +0.008 C 
ATOM      4  C   UNL     1       2.941   7.173  -6.482  0.00  0.00    +0.019 C 
ATOM      5  C   UNL     1       2.114   6.218  -5.496  0.00  0.00    -0.045 C 
ATOM      6  C   UNL     1       0.989   5.378  -6.336  0.00  0.00    +0.040 C 
ATOM      7  C   UNL     1       2.692   5.562  -4.547  0.00  0.00    -0.033 C 
ATOM      8  C   UNL     1       4.060   5.010  -4.600  0.00  0.00    -0.024 C 
ATOM      9  C   UNL     1       4.717   4.995  -3.439  0.00  0.00    +0.033 C 
ATOM     10  C   UNL     1       3.869   4.646  -2.291  0.00  0.00    +0.173 C 
ATOM     11  C   UNL     1       2.411   4.932  -2.253  0.00  0.00    +0.074 C 
ATOM     12  O   UNL     1       4.407   4.325  -1.188  0.00  0.00    -0.291 OA
ATOM     13  C   UNL     1       4.747   5.504  -5.840  0.00  0.00    +0.026 C 
ATOM     14  C   UNL     1       1.774   4.803  -3.634  0.00  0.00    +0.034 C 
ATOM     15  C   UNL     1       4.429   6.952  -5.828  0.00  0.00    +0.009 C 
ATOM     16  C   UNL     1       4.120   6.683  -8.609  0.00  0.00    +0.004 C 
ATOM     17  C   UNL     1       2.191   7.998  -8.694  0.00  0.00    +0.004 C 
ATOM     18  C   UNL     1       0.770   6.497  -7.540  0.00  0.00    +0.012 C 
ATOM     19  C   UNL     1       3.565   6.174  -9.942  0.00  0.00    +0.047 C 
ENDROOT
BRANCH   6  20
ATOM     20  C   UNL     1      -0.226   5.984  -5.446  0.00  0.00    -0.019 A 
ATOM     21  C   UNL     1      -0.140   7.283  -5.081  0.00  0.00    -0.003 A 
ATOM     22  C   UNL     1      -1.227   7.817  -4.400  0.00  0.00    +0.014 A 
ATOM     23  C   UNL     1      -2.249   6.994  -3.960  0.00  0.00    +0.048 A 
ATOM     24  C   UNL     1      -2.349   5.733  -4.529  0.00  0.00    +0.014 A 
ATOM     25  C   UNL     1      -1.355   5.225  -5.363  0.00  0.00    -0.003 A 
BRANCH  23  26
ATOM     26  N   UNL     1      -2.971   7.371  -2.783  0.00  0.00    -0.304 N 
ATOM     27  C   UNL     1      -2.243   7.756  -1.593  0.00  0.00    +0.112 C 
ATOM     28  C   UNL     1      -4.204   6.625  -2.543  0.00  0.00    +0.112 C 
ENDBRANCH  23  26
ENDBRANCH   6  20
BRANCH   1  29
ATOM     29  C   UNL     1       1.236   6.564 -10.748  0.00  0.00    +0.187 C 
ATOM     30  O   UNL     1       0.337   7.244 -10.341  0.00  0.00    -0.292 OA
ATOM     31  C   UNL     1       1.866   6.785 -12.064  0.00  0.00    +0.076 C 
ENDBRANCH   1  29
BRANCH   1  32
ATOM     32  O   UNL     1       1.907   4.522  -9.863  0.00  0.00    -0.449 OA
BRANCH  32  34
ATOM     33  C   UNL     1       0.273   3.888 -11.581  0.00  0.00    +0.121 C 
ATOM     34  C   UNL     1       0.636   4.083 -10.261  0.00  0.00    +0.318 C 
ATOM     35  O   UNL     1      -0.296   4.211  -9.410  0.00  0.00    -0.250 OA
ENDBRANCH  32  34
ENDBRANCH   1  32
TORSDOF 5
ENDMDL
MODEL 6
REMARK VINA RESULT:      -6.6      3.398      8.428
REMARK  Name = 
REMARK  5 active torsions:
REMARK  status: ('A' for Active; 'I' for Inactive)
REMARK    1  A    between atoms: C_2  and  O_4
REMARK    2  A    between atoms: O_4  and  C_5
REMARK    3  A    between atoms: C_5  and  C_6
REMARK    4  A    between atoms: C_23  and  C_24
REMARK    5  A    between atoms: C_27  and  N_28
REMARK                            x       y       z     vdW  Elec       q    Type
REMARK                         _______ _______ _______ _____ _____    ______ ____
ROOT
ATOM      1  C   UNL     1      -0.473   5.835  -6.427  0.00  0.00    +0.186 C 
ATOM      2  C   UNL     1       0.084   5.354  -7.649  0.00  0.00    +0.041 C 
ATOM      3  C   UNL     1       1.655   5.481  -7.251  0.00  0.00    +0.008 C 
ATOM      4  C   UNL     1       2.026   4.364  -8.509  0.00  0.00    +0.019 C 
ATOM      5  C   UNL     1       2.417   5.570  -9.488  0.00  0.00    -0.045 C 
ATOM      6  C   UNL     1       1.299   6.760  -9.392  0.00  0.00    +0.040 C 
ATOM      7  C   UNL     1       3.636   5.974  -9.613  0.00  0.00    -0.033 C 
ATOM      8  C   UNL     1       4.651   5.973  -8.540  0.00  0.00    -0.024 C 
ATOM      9  C   UNL     1       5.905   5.755  -8.938  0.00  0.00    +0.033 C 
ATOM     10  C   UNL     1       6.238   6.408 -10.211  0.00  0.00    +0.173 C 
ATOM     11  C   UNL     1       5.222   6.690 -11.259  0.00  0.00    +0.074 C 
ATOM     12  O   UNL     1       7.452   6.518 -10.561  0.00  0.00    -0.291 OA
ATOM     13  C   UNL     1       4.109   5.243  -7.345  0.00  0.00    +0.026 C 
ATOM     14  C   UNL     1       3.864   7.031 -10.653  0.00  0.00    +0.034 C 
ATOM     15  C   UNL     1       3.531   4.019  -7.951  0.00  0.00    +0.009 C 
ATOM     16  C   UNL     1       1.444   4.353  -6.097  0.00  0.00    +0.004 C 
ATOM     17  C   UNL     1      -0.237   3.853  -7.642  0.00  0.00    +0.004 C 
ATOM     18  C   UNL     1       0.019   5.791  -8.978  0.00  0.00    +0.012 C 
ATOM     19  C   UNL     1       0.273   5.017  -5.369  0.00  0.00    +0.047 C 
ENDROOT
BRANCH   6  20
ATOM     20  C   UNL     1       0.960   6.663 -10.977  0.00  0.00    -0.019 A 
ATOM     21  C   UNL     1       1.194   5.482 -11.590  0.00  0.00    -0.003 A 
ATOM     22  C   UNL     1       0.814   5.380 -12.922  0.00  0.00    +0.014 A 
ATOM     23  C   UNL     1       0.398   6.502 -13.617  0.00  0.00    +0.048 A 
ATOM     24  C   UNL     1       0.014   7.611 -12.878  0.00  0.00    +0.014 A 
ATOM     25  C   UNL     1       0.221   7.681 -11.503  0.00  0.00    -0.003 A 
BRANCH  23  26
ATOM     26  N   UNL     1       0.629   6.555 -15.029  0.00  0.00    -0.304 N 
ATOM     27  C   UNL     1       1.861   7.126 -15.529  0.00  0.00    +0.112 C 
ATOM     28  C   UNL     1      -0.554   6.822 -15.844  0.00  0.00    +0.112 C 
ENDBRANCH  23  26
ENDBRANCH   6  20
BRANCH   1  29
ATOM     29  C   UNL     1      -1.940   5.517  -6.408  0.00  0.00    +0.187 C 
ATOM     30  O   UNL     1      -2.327   4.884  -5.466  0.00  0.00    -0.292 OA
ATOM     31  C   UNL     1      -2.823   6.413  -7.179  0.00  0.00    +0.076 C 
ENDBRANCH   1  29
BRANCH   1  32
ATOM     32  O   UNL     1      -0.345   7.170  -6.053  0.00  0.00    -0.449 OA
BRANCH  32  34
ATOM     33  C   UNL     1      -1.803   8.379  -4.492  0.00  0.00    +0.121 C 
ATOM     34  C   UNL     1      -0.760   7.510  -4.758  0.00  0.00    +0.318 C 
ATOM     35  O   UNL     1       0.069   7.287  -3.824  0.00  0.00    -0.250 OA
ENDBRANCH  32  34
ENDBRANCH   1  32
TORSDOF 5
ENDMDL
MODEL 7
REMARK VINA RESULT:      -5.9      3.355      7.178
REMARK  Name = 
REMARK  5 active torsions:
REMARK  status: ('A' for Active; 'I' for Inactive)
REMARK    1  A    between atoms: C_2  and  O_4
REMARK    2  A    between atoms: O_4  and  C_5
REMARK    3  A    between atoms: C_5  and  C_6
REMARK    4  A    between atoms: C_23  and  C_24
REMARK    5  A    between atoms: C_27  and  N_28
REMARK                            x       y       z     vdW  Elec       q    Type
REMARK                         _______ _______ _______ _____ _____    ______ ____
ROOT
ATOM      1  C   UNL     1       2.356   6.322  -6.400  0.00  0.00    +0.186 C 
ATOM      2  C   UNL     1       2.749   6.793  -7.689  0.00  0.00    +0.041 C 
ATOM      3  C   UNL     1       1.532   6.148  -8.551  0.00  0.00    +0.008 C 
ATOM      4  C   UNL     1       1.870   7.278  -9.806  0.00  0.00    +0.019 C 
ATOM      5  C   UNL     1       2.710   6.170 -10.601  0.00  0.00    -0.045 C 
ATOM      6  C   UNL     1       3.696   5.364  -9.574  0.00  0.00    +0.040 C 
ATOM      7  C   UNL     1       2.173   5.446 -11.525  0.00  0.00    -0.033 C 
ATOM      8  C   UNL     1       0.770   4.987 -11.543  0.00  0.00    -0.024 C 
ATOM      9  C   UNL     1       0.218   4.880 -12.752  0.00  0.00    +0.033 C 
ATOM     10  C   UNL     1       1.135   4.354 -13.771  0.00  0.00    +0.173 C 
ATOM     11  C   UNL     1       2.608   4.545 -13.701  0.00  0.00    +0.074 C 
ATOM     12  O   UNL     1       0.674   3.943 -14.878  0.00  0.00    -0.291 OA
ATOM     13  C   UNL     1       0.013   5.659 -10.433  0.00  0.00    +0.026 C 
ATOM     14  C   UNL     1       3.111   4.535 -12.260  0.00  0.00    +0.034 C 
ATOM     15  C   UNL     1       0.432   7.075 -10.570  0.00  0.00    +0.009 C 
ATOM     16  C   UNL     1       0.479   7.104  -7.759  0.00  0.00    +0.004 C 
ATOM     17  C   UNL     1       2.480   8.302  -7.635  0.00  0.00    +0.004 C 
ATOM     18  C   UNL     1       3.887   6.597  -8.481  0.00  0.00    +0.012 C 
ATOM     19  C   UNL     1       0.878   6.717  -6.334  0.00  0.00    +0.047 C 
ENDROOT
BRANCH   6  20
ATOM     20  C   UNL     1       5.024   5.791 -10.405  0.00  0.00    -0.019 A 
ATOM     21  C   UNL     1       4.900   6.798 -11.298  0.00  0.00    -0.003 A 
ATOM     22  C   UNL     1       6.060   7.218 -11.935  0.00  0.00    +0.014 A 
ATOM     23  C   UNL     1       7.235   6.500 -11.792  0.00  0.00    +0.048 A 
ATOM     24  C   UNL     1       7.319   5.610 -10.732  0.00  0.00    +0.014 A 
ATOM     25  C   UNL     1       6.209   5.291  -9.953  0.00  0.00    -0.003 A 
BRANCH  23  26
ATOM     26  N   UNL     1       8.179   6.514 -12.868  0.00  0.00    -0.304 N 
ATOM     27  C   UNL     1       7.727   6.243 -14.216  0.00  0.00    +0.112 C 
ATOM     28  C   UNL     1       9.504   5.993 -12.541  0.00  0.00    +0.112 C 
ENDBRANCH  23  26
ENDBRANCH   6  20
BRANCH   1  29
ATOM     29  C   UNL     1       3.149   7.055  -5.357  0.00  0.00    +0.187 C 
ATOM     30  O   UNL     1       2.518   7.517  -4.447  0.00  0.00    -0.292 OA
ATOM     31  C   UNL     1       4.574   6.692  -5.232  0.00  0.00    +0.076 C 
ENDBRANCH   1  29
BRANCH   1  32
ATOM     32  O   UNL     1       2.416   4.970  -6.077  0.00  0.00    -0.449 OA
BRANCH  32  34
ATOM     33  C   UNL     1       0.882   4.638  -4.190  0.00  0.00    +0.121 C 
ATOM     34  C   UNL     1       1.273   4.403  -5.496  0.00  0.00    +0.318 C 
ATOM     35  O   UNL     1       0.795   3.382  -6.076  0.00  0.00    -0.250 OA
ENDBRANCH  32  34
ENDBRANCH   1  32
TORSDOF 5
ENDMDL
MODEL 8
REMARK VINA RESULT:      -5.8      5.672     10.562
REMARK  Name = 
REMARK  5 active torsions:
REMARK  status: ('A' for Active; 'I' for Inactive)
REMARK    1  A    between atoms: C_2  and  O_4
REMARK    2  A    between atoms: O_4  and  C_5
REMARK    3  A    between atoms: C_5  and  C_6
REMARK    4  A    between atoms: C_23  and  C_24
REMARK    5  A    between atoms: C_27  and  N_28
REMARK                            x       y       z     vdW  Elec       q    Type
REMARK                         _______ _______ _______ _____ _____    ______ ____
ROOT
ATOM      1  C   UNL     1       5.256  11.100   2.785  0.00  0.00    +0.186 C 
ATOM      2  C   UNL     1       4.481  10.762   1.636  0.00  0.00    +0.041 C 
ATOM      3  C   UNL     1       3.090  10.399   2.395  0.00  0.00    +0.008 C 
ATOM      4  C   UNL     1       2.260  10.626   0.903  0.00  0.00    +0.019 C 
ATOM      5  C   UNL     1       2.259   9.045   0.643  0.00  0.00    -0.045 C 
ATOM      6  C   UNL     1       3.732   8.417   0.979  0.00  0.00    +0.040 C 
ATOM      7  C   UNL     1       1.259   8.303   0.981  0.00  0.00    -0.033 C 
ATOM      8  C   UNL     1       0.387   8.525   2.151  0.00  0.00    -0.024 C 
ATOM      9  C   UNL     1      -0.887   8.161   1.994  0.00  0.00    +0.033 C 
ATOM     10  C   UNL     1      -1.051   6.917   1.230  0.00  0.00    +0.173 C 
ATOM     11  C   UNL     1      -0.076   6.473   0.200  0.00  0.00    +0.074 C 
ATOM     12  O   UNL     1      -2.166   6.315   1.244  0.00  0.00    -0.291 OA
ATOM     13  C   UNL     1       0.713   9.855   2.767  0.00  0.00    +0.026 C 
ATOM     14  C   UNL     1       1.353   6.863   0.568  0.00  0.00    +0.034 C 
ATOM     15  C   UNL     1       0.773  10.750   1.587  0.00  0.00    +0.009 C 
ATOM     16  C   UNL     1       2.963  11.947   2.881  0.00  0.00    +0.004 C 
ATOM     17  C   UNL     1       4.245  12.106   0.934  0.00  0.00    +0.004 C 
ATOM     18  C   UNL     1       4.607   9.785   0.641  0.00  0.00    +0.012 C 
ATOM     19  C   UNL     1       4.341  12.073   3.535  0.00  0.00    +0.047 C 
ENDROOT
BRANCH   6  20
ATOM     20  C   UNL     1       3.906   7.841  -0.530  0.00  0.00    -0.019 A 
ATOM     21  C   UNL     1       3.758   8.716  -1.549  0.00  0.00    -0.003 A 
ATOM     22  C   UNL     1       4.000   8.234  -2.829  0.00  0.00    +0.014 A 
ATOM     23  C   UNL     1       4.191   6.880  -3.042  0.00  0.00    +0.048 A 
ATOM     24  C   UNL     1       4.508   6.095  -1.944  0.00  0.00    +0.014 A 
ATOM     25  C   UNL     1       4.446   6.594  -0.645  0.00  0.00    -0.003 A 
BRANCH  23  26
ATOM     26  N   UNL     1       3.801   6.326  -4.303  0.00  0.00    -0.304 N 
ATOM     27  C   UNL     1       2.535   6.708  -4.889  0.00  0.00    +0.112 C 
ATOM     28  C   UNL     1       4.189   4.933  -4.517  0.00  0.00    +0.112 C 
ENDBRANCH  23  26
ENDBRANCH   6  20
BRANCH   1  29
ATOM     29  C   UNL     1       6.510  11.791   2.335  0.00  0.00    +0.187 C 
ATOM     30  O   UNL     1       6.786  11.672   1.174  0.00  0.00    -0.292 OA
ATOM     31  C   UNL     1       6.962  12.939   3.144  0.00  0.00    +0.076 C 
ENDBRANCH   1  29
BRANCH   1  32
ATOM     32  O   UNL     1       5.638  10.131   3.708  0.00  0.00    -0.449 OA
BRANCH  32  34
ATOM     33  C   UNL     1       6.497   7.979   2.898  0.00  0.00    +0.121 C 
ATOM     34  C   UNL     1       6.686   9.278   3.335  0.00  0.00    +0.318 C 
ATOM     35  O   UNL     1       7.843   9.593   3.748  0.00  0.00    -0.250 OA
ENDBRANCH  32  34
ENDBRANCH   1  32
TORSDOF 5
ENDMDL
MODEL 9
REMARK VINA RESULT:      -5.5      9.100     12.647
REMARK  Name = 
REMARK  5 active torsions:
REMARK  status: ('A' for Active; 'I' for Inactive)
REMARK    1  A    between atoms: C_2  and  O_4
REMARK    2  A    between atoms: O_4  and  C_5
REMARK    3  A    between atoms: C_5  and  C_6
REMARK    4  A    between atoms: C_23  and  C_24
REMARK    5  A    between atoms: C_27  and  N_28
REMARK                            x       y       z     vdW  Elec       q    Type
REMARK                         _______ _______ _______ _____ _____    ______ ____
ROOT
ATOM      1  C   UNL     1       4.328  10.755   1.566  0.00  0.00    +0.186 C 
ATOM      2  C   UNL     1       4.993  12.017   1.594  0.00  0.00    +0.041 C 
ATOM      3  C   UNL     1       4.890  12.367   0.010  0.00  0.00    +0.008 C 
ATOM      4  C   UNL     1       5.160  14.024   0.396  0.00  0.00    +0.019 C 
ATOM      5  C   UNL     1       6.711  13.876   0.023  0.00  0.00    -0.045 C 
ATOM      6  C   UNL     1       7.317  12.500   0.669  0.00  0.00    +0.040 C 
ATOM      7  C   UNL     1       7.158  14.172  -1.151  0.00  0.00    -0.033 C 
ATOM      8  C   UNL     1       6.415  14.001  -2.415  0.00  0.00    -0.024 C 
ATOM      9  C   UNL     1       6.673  14.908  -3.358  0.00  0.00    +0.033 C 
ATOM     10  C   UNL     1       8.089  15.294  -3.429  0.00  0.00    +0.173 C 
ATOM     11  C   UNL     1       8.992  15.250  -2.249  0.00  0.00    +0.074 C 
ATOM     12  O   UNL     1       8.517  15.924  -4.442  0.00  0.00    -0.291 OA
ATOM     13  C   UNL     1       4.994  13.625  -2.110  0.00  0.00    +0.026 C 
ATOM     14  C   UNL     1       8.647  14.095  -1.315  0.00  0.00    +0.034 C 
ATOM     15  C   UNL     1       4.627  14.593  -1.049  0.00  0.00    +0.009 C 
ATOM     16  C   UNL     1       3.269  12.438   0.142  0.00  0.00    +0.004 C 
ATOM     17  C   UNL     1       4.000  12.949   2.301  0.00  0.00    +0.004 C 
ATOM     18  C   UNL     1       6.283  12.421   1.962  0.00  0.00    +0.012 C 
ATOM     19  C   UNL     1       3.052  11.063   0.778  0.00  0.00    +0.047 C 
ENDROOT
BRANCH   6  20
ATOM     20  C   UNL     1       8.439  13.312   1.517  0.00  0.00    -0.019 A 
ATOM     21  C   UNL     1       8.013  14.341   2.283  0.00  0.00    -0.003 A 
ATOM     22  C   UNL     1       8.964  14.969   3.076  0.00  0.00    +0.014 A 
ATOM     23  C   UNL     1      10.307  14.667   2.928  0.00  0.00    +0.048 A 
ATOM     24  C   UNL     1      10.632  13.491   2.269  0.00  0.00    +0.014 A 
ATOM     25  C   UNL     1       9.671  12.735   1.604  0.00  0.00    -0.003 A 
BRANCH  23  26
ATOM     26  N   UNL     1      11.271  15.685   3.219  0.00  0.00    -0.304 N 
ATOM     27  C   UNL     1      10.911  17.076   3.055  0.00  0.00    +0.112 C 
ATOM     28  C   UNL     1      12.650  15.355   2.864  0.00  0.00    +0.112 C 
ENDBRANCH  23  26
ENDBRANCH   6  20
BRANCH   1  29
ATOM     29  C   UNL     1       3.999  10.353   2.974  0.00  0.00    +0.187 C 
ATOM     30  O   UNL     1       2.834  10.200   3.217  0.00  0.00    -0.292 OA
ATOM     31  C   UNL     1       5.065   9.674   3.736  0.00  0.00    +0.076 C 
ENDBRANCH   1  29
BRANCH   1  32
ATOM     32  O   UNL     1       4.909   9.648   0.956  0.00  0.00    -0.449 OA
BRANCH  32  34
ATOM     33  C   UNL     1       3.576   7.592   0.815  0.00  0.00    +0.121 C 
ATOM     34  C   UNL     1       4.051   8.774   0.275  0.00  0.00    +0.318 C 
ATOM     35  O   UNL     1       3.999   8.903  -0.986  0.00  0.00    -0.250 OA
ENDBRANCH  32  34
ENDBRANCH   1  32
TORSDOF 5
ENDMDL
