MODEL 1
REMARK VINA RESULT:      -9.4      0.000      0.000
REMARK  Name = 
REMARK  6 active torsions:
REMARK  status: ('A' for Active; 'I' for Inactive)
REMARK    1  A    between atoms: C_2  and  C_3
REMARK    2  A    between atoms: C_2  and  C_19
REMARK    3  A    between atoms: C_3  and  N_4
REMARK    4  A    between atoms: N_4  and  C_5
REMARK    5  A    between atoms: C_5  and  C_6
REMARK    6  A    between atoms: C_6  and  C_8
REMARK                            x       y       z     vdW  Elec       q    Type
REMARK                         _______ _______ _______ _____ _____    ______ ____
ROOT
ATOM      1  N   UNL     1      -0.116   5.746  -8.512  0.00  0.00    -0.212 NA
ENDROOT
BRANCH   1   2
ATOM      2  C   UNL     1      -0.259   5.020  -7.309  0.00  0.00    +0.125 C 
BRANCH   2   4
ATOM      3  O   UNL     1       1.118   3.605  -6.158  0.00  0.00    -0.218 OA
ATOM      4  C   UNL     1       1.182   5.078  -6.512  0.00  0.00    +0.209 C 
BRANCH   4   5
ATOM      5  C   UNL     1       0.457   5.546  -5.001  0.00  0.00    +0.198 C 
ATOM      6  O   UNL     1       1.712   5.171  -4.211  0.00  0.00    -0.477 OA
ATOM      7  C   UNL     1       2.678   6.044  -3.911  0.00  0.00    +0.135 A 
ATOM      8  C   UNL     1       3.156   6.741  -5.019  0.00  0.00    +0.014 A 
ATOM      9  C   UNL     1       4.334   7.405  -4.905  0.00  0.00    +0.028 A 
ATOM     10  C   UNL     1       5.156   7.224  -3.797  0.00  0.00    +0.140 A 
ATOM     11  C   UNL     1       4.557   6.715  -2.651  0.00  0.00    +0.033 A 
ATOM     12  F   UNL     1       6.514   7.295  -3.890  0.00  0.00    -0.204 F 
ATOM     13  C   UNL     1       2.086   7.244  -5.939  0.00  0.00    +0.033 C 
ATOM     14  C   UNL     1       3.478   5.849  -2.787  0.00  0.00    +0.039 A 
ATOM     15  C   UNL     1       0.814   7.141  -5.196  0.00  0.00    +0.051 C 
ENDBRANCH   4   5
ENDBRANCH   2   4
ENDBRANCH   1   2
BRANCH   1  16
ATOM     16  C   UNL     1       0.597   5.023  -9.508  0.00  0.00    +0.125 C 
BRANCH  16  17
ATOM     17  C   UNL     1       1.562   6.245 -10.061  0.00  0.00    +0.209 C 
ATOM     18  O   UNL     1       1.194   5.921 -11.500  0.00  0.00    -0.218 OA
BRANCH  17  19
ATOM     19  C   UNL     1       2.980   5.252 -10.151  0.00  0.00    +0.198 C 
ATOM     20  O   UNL     1       3.690   6.259 -11.074  0.00  0.00    -0.477 OA
ATOM     21  C   UNL     1       5.087   6.122 -11.023  0.00  0.00    +0.135 A 
ATOM     22  C   UNL     1       5.718   5.543  -9.925  0.00  0.00    +0.014 A 
ATOM     23  C   UNL     1       6.929   6.097  -9.521  0.00  0.00    +0.028 A 
ATOM     24  C   UNL     1       7.617   7.010 -10.310  0.00  0.00    +0.140 A 
ATOM     25  C   UNL     1       7.196   7.074 -11.626  0.00  0.00    +0.033 A 
ATOM     26  F   UNL     1       8.424   7.967  -9.766  0.00  0.00    -0.204 F 
ATOM     27  C   UNL     1       4.912   4.993  -8.784  0.00  0.00    +0.033 C 
ATOM     28  C   UNL     1       5.892   6.751 -11.969  0.00  0.00    +0.039 A 
ATOM     29  C   UNL     1       3.691   5.915  -8.820  0.00  0.00    +0.051 C 
ENDBRANCH  17  19
ENDBRANCH  16  17
ENDBRANCH   1  16
TORSDOF 6
ENDMDL
MODEL 2
REMARK VINA RESULT:      -9.1      3.205      4.846
REMARK  Name = 
REMARK  6 active torsions:
REMARK  status: ('A' for Active; 'I' for Inactive)
REMARK    1  A    between atoms: C_2  and  C_3
REMARK    2  A    between atoms: C_2  and  C_19
REMARK    3  A    between atoms: C_3  and  N_4
REMARK    4  A    between atoms: N_4  and  C_5
REMARK    5  A    between atoms: C_5  and  C_6
REMARK    6  A    between atoms: C_6  and  C_8
REMARK                            x       y       z     vdW  Elec       q    Type
REMARK                         _______ _______ _______ _____ _____    ______ ____
ROOT
ATOM      1  N   UNL     1       4.749   5.010  -8.317  0.00  0.00    -0.212 NA
ENDROOT
BRANCH   1   2
ATOM      2  C   UNL     1       4.667   5.635  -7.053  0.00  0.00    +0.125 C 
BRANCH   2   4
ATOM      3  O   UNL     1       3.525   7.337  -6.040  0.00  0.00    -0.218 OA
ATOM      4  C   UNL     1       3.106   6.110  -6.828  0.00  0.00    +0.209 C 
BRANCH   4   5
ATOM      5  C   UNL     1       2.906   5.162  -5.383  0.00  0.00    +0.198 C 
ATOM      6  O   UNL     1       1.685   5.973  -4.945  0.00  0.00    -0.477 OA
ATOM      7  C   UNL     1       0.429   5.623  -5.236  0.00  0.00    +0.135 A 
ATOM      8  C   UNL     1       0.223   5.384  -6.594  0.00  0.00    +0.014 A 
ATOM      9  C   UNL     1      -1.053   5.340  -7.055  0.00  0.00    +0.028 A 
ATOM     10  C   UNL     1      -2.119   5.736  -6.256  0.00  0.00    +0.140 A 
ATOM     11  C   UNL     1      -1.901   5.749  -4.883  0.00  0.00    +0.033 A 
ATOM     12  F   UNL     1      -3.233   6.322  -6.780  0.00  0.00    -0.204 F 
ATOM     13  C   UNL     1       1.295   4.565  -7.245  0.00  0.00    +0.033 C 
ATOM     14  C   UNL     1      -0.622   6.018  -4.411  0.00  0.00    +0.039 A 
ATOM     15  C   UNL     1       2.082   3.961  -6.150  0.00  0.00    +0.051 C 
ENDBRANCH   4   5
ENDBRANCH   2   4
ENDBRANCH   1   2
BRANCH   1  16
ATOM     16  C   UNL     1       5.821   5.508  -9.108  0.00  0.00    +0.125 C 
BRANCH  16  17
ATOM     17  C   UNL     1       4.936   6.289 -10.264  0.00  0.00    +0.209 C 
ATOM     18  O   UNL     1       3.870   5.206 -10.218  0.00  0.00    -0.218 OA
BRANCH  17  19
ATOM     19  C   UNL     1       5.740   5.507 -11.585  0.00  0.00    +0.198 C 
ATOM     20  O   UNL     1       4.772   6.125 -12.610  0.00  0.00    -0.477 OA
ATOM     21  C   UNL     1       5.331   6.175 -13.897  0.00  0.00    +0.135 A 
ATOM     22  C   UNL     1       6.711   6.163 -14.088  0.00  0.00    +0.014 A 
ATOM     23  C   UNL     1       7.221   6.962 -15.106  0.00  0.00    +0.028 A 
ATOM     24  C   UNL     1       6.397   7.547 -16.060  0.00  0.00    +0.140 A 
ATOM     25  C   UNL     1       5.117   7.026 -16.121  0.00  0.00    +0.033 A 
ATOM     26  F   UNL     1       6.724   8.725 -16.668  0.00  0.00    -0.204 F 
ATOM     27  C   UNL     1       7.642   6.036 -12.916  0.00  0.00    +0.033 C 
ATOM     28  C   UNL     1       4.532   6.451 -15.003  0.00  0.00    +0.039 A 
ATOM     29  C   UNL     1       6.825   6.725 -11.821  0.00  0.00    +0.051 C 
ENDBRANCH  17  19
ENDBRANCH  16  17
ENDBRANCH   1  16
TORSDOF 6
ENDMDL
MODEL 3
REMARK VINA RESULT:      -8.9      4.230      7.910
REMARK  Name = 
REMARK  6 active torsions:
REMARK  status: ('A' for Active; 'I' for Inactive)
REMARK    1  A    between atoms: C_2  and  C_3
REMARK    2  A    between atoms: C_2  and  C_19
REMARK    3  A    between atoms: C_3  and  N_4
REMARK    4  A    between atoms: N_4  and  C_5
REMARK    5  A    between atoms: C_5  and  C_6
REMARK    6  A    between atoms: C_6  and  C_8
REMARK                            x       y       z     vdW  Elec       q    Type
REMARK                         _______ _______ _______ _____ _____    ______ ____
ROOT
ATOM      1  N   UNL     1       4.672   5.914  -6.137  0.00  0.00    -0.212 NA
ENDROOT
BRANCH   1   2
ATOM      2  C   UNL     1       3.855   5.044  -6.891  0.00  0.00    +0.125 C 
BRANCH   2   4
ATOM      3  O   UNL     1       2.265   3.511  -6.301  0.00  0.00    -0.218 OA
ATOM      4  C   UNL     1       2.365   5.020  -6.190  0.00  0.00    +0.209 C 
BRANCH   4   5
ATOM      5  C   UNL     1       1.526   5.258  -7.696  0.00  0.00    +0.198 C 
ATOM      6  O   UNL     1       0.181   4.869  -7.080  0.00  0.00    -0.477 OA
ATOM      7  C   UNL     1      -0.676   5.759  -6.570  0.00  0.00    +0.135 A 
ATOM      8  C   UNL     1      -0.095   6.612  -5.634  0.00  0.00    +0.014 A 
ATOM      9  C   UNL     1      -0.911   7.330  -4.821  0.00  0.00    +0.028 A 
ATOM     10  C   UNL     1      -2.276   7.069  -4.762  0.00  0.00    +0.140 A 
ATOM     11  C   UNL     1      -2.830   6.390  -5.840  0.00  0.00    +0.033 A 
ATOM     12  F   UNL     1      -2.991   7.235  -3.613  0.00  0.00    -0.204 F 
ATOM     13  C   UNL     1       1.241   7.154  -6.041  0.00  0.00    +0.033 C 
ATOM     14  C   UNL     1      -2.041   5.482  -6.536  0.00  0.00    +0.039 A 
ATOM     15  C   UNL     1       1.379   6.884  -7.486  0.00  0.00    +0.051 C 
ENDBRANCH   4   5
ENDBRANCH   2   4
ENDBRANCH   1   2
BRANCH   1  16
ATOM     16  C   UNL     1       4.501   5.751  -4.734  0.00  0.00    +0.125 C 
BRANCH  16  17
ATOM     17  C   UNL     1       4.282   7.336  -4.324  0.00  0.00    +0.209 C 
ATOM     18  O   UNL     1       5.781   7.586  -4.383  0.00  0.00    -0.218 OA
BRANCH  17  19
ATOM     19  C   UNL     1       4.353   7.034  -2.619  0.00  0.00    +0.198 C 
ATOM     20  O   UNL     1       4.132   8.522  -2.292  0.00  0.00    -0.477 OA
ATOM     21  C   UNL     1       3.613   8.704  -1.000  0.00  0.00    +0.135 A 
ATOM     22  C   UNL     1       2.922   7.686  -0.347  0.00  0.00    +0.014 A 
ATOM     23  C   UNL     1       1.826   8.055   0.427  0.00  0.00    +0.028 A 
ATOM     24  C   UNL     1       1.574   9.381   0.755  0.00  0.00    +0.140 A 
ATOM     25  C   UNL     1       2.635  10.244   0.546  0.00  0.00    +0.033 A 
ATOM     26  F   UNL     1       0.307   9.840   0.975  0.00  0.00    -0.204 F 
ATOM     27  C   UNL     1       2.762   6.338  -0.990  0.00  0.00    +0.033 C 
ATOM     28  C   UNL     1       3.591   9.969  -0.421  0.00  0.00    +0.039 A 
ATOM     29  C   UNL     1       2.742   6.724  -2.470  0.00  0.00    +0.051 C 
ENDBRANCH  17  19
ENDBRANCH  16  17
ENDBRANCH   1  16
TORSDOF 6
ENDMDL
MODEL 4
REMARK VINA RESULT:      -8.9      2.976      8.242
REMARK  Name = 
REMARK  6 active torsions:
REMARK  status: ('A' for Active; 'I' for Inactive)
REMARK    1  A    between atoms: C_2  and  C_3
REMARK    2  A    between atoms: C_2  and  C_19
REMARK    3  A    between atoms: C_3  and  N_4
REMARK    4  A    between atoms: N_4  and  C_5
REMARK    5  A    between atoms: C_5  and  C_6
REMARK    6  A    between atoms: C_6  and  C_8
REMARK                            x       y       z     vdW  Elec       q    Type
REMARK                         _______ _______ _______ _____ _____    ______ ____
ROOT
ATOM      1  N   UNL     1       1.110   4.802  -8.180  0.00  0.00    -0.212 NA
ENDROOT
BRANCH   1   2
ATOM      2  C   UNL     1       1.511   5.371  -9.409  0.00  0.00    +0.125 C 
BRANCH   2   4
ATOM      3  O   UNL     1       3.002   3.838  -8.602  0.00  0.00    -0.218 OA
ATOM      4  C   UNL     1       3.043   4.856  -9.725  0.00  0.00    +0.209 C 
BRANCH   4   5
ATOM      5  C   UNL     1       3.779   6.058  -8.703  0.00  0.00    +0.198 C 
ATOM      6  O   UNL     1       5.167   5.434  -8.864  0.00  0.00    -0.477 OA
ATOM      7  C   UNL     1       6.043   5.823  -9.794  0.00  0.00    +0.135 A 
ATOM      8  C   UNL     1       5.512   5.834 -11.083  0.00  0.00    +0.014 A 
ATOM      9  C   UNL     1       6.369   5.894 -12.134  0.00  0.00    +0.028 A 
ATOM     10  C   UNL     1       7.738   5.729 -11.953  0.00  0.00    +0.140 A 
ATOM     11  C   UNL     1       8.231   5.942 -10.671  0.00  0.00    +0.033 A 
ATOM     12  F   UNL     1       8.524   5.148 -12.904  0.00  0.00    -0.204 F 
ATOM     13  C   UNL     1       4.145   6.439 -11.181  0.00  0.00    +0.033 C 
ATOM     14  C   UNL     1       7.411   5.662  -9.584  0.00  0.00    +0.039 A 
ATOM     15  C   UNL     1       3.918   7.164  -9.914  0.00  0.00    +0.051 C 
ENDBRANCH   4   5
ENDBRANCH   2   4
ENDBRANCH   1   2
BRANCH   1  16
ATOM     16  C   UNL     1       0.056   5.526  -7.557  0.00  0.00    +0.125 C 
BRANCH  16  17
ATOM     17  C   UNL     1       0.713   5.673  -6.048  0.00  0.00    +0.209 C 
ATOM     18  O   UNL     1       0.945   4.172  -5.974  0.00  0.00    -0.218 OA
BRANCH  17  19
ATOM     19  C   UNL     1      -0.811   5.523  -5.235  0.00  0.00    +0.198 C 
ATOM     20  O   UNL     1      -0.125   5.384  -3.864  0.00  0.00    -0.477 OA
ATOM     21  C   UNL     1      -0.983   5.737  -2.810  0.00  0.00    +0.135 A 
ATOM     22  C   UNL     1      -2.075   6.577  -3.015  0.00  0.00    +0.014 A 
ATOM     23  C   UNL     1      -2.372   7.494  -2.012  0.00  0.00    +0.028 A 
ATOM     24  C   UNL     1      -1.785   7.420  -0.754  0.00  0.00    +0.140 A 
ATOM     25  C   UNL     1      -1.162   6.217  -0.474  0.00  0.00    +0.033 A 
ATOM     26  F   UNL     1      -1.581   8.532   0.011  0.00  0.00    -0.204 F 
ATOM     27  C   UNL     1      -2.400   7.083  -4.391  0.00  0.00    +0.033 C 
ATOM     28  C   UNL     1      -0.646   5.432  -1.494  0.00  0.00    +0.039 A 
ATOM     29  C   UNL     1      -1.004   7.145  -5.014  0.00  0.00    +0.051 C 
ENDBRANCH  17  19
ENDBRANCH  16  17
ENDBRANCH   1  16
TORSDOF 6
ENDMDL
MODEL 5
REMARK VINA RESULT:      -8.7      3.018      8.519
REMARK  Name = 
REMARK  6 active torsions:
REMARK  status: ('A' for Active; 'I' for Inactive)
REMARK    1  A    between atoms: C_2  and  C_3
REMARK    2  A    between atoms: C_2  and  C_19
REMARK    3  A    between atoms: C_3  and  N_4
REMARK    4  A    between atoms: N_4  and  C_5
REMARK    5  A    between atoms: C_5  and  C_6
REMARK    6  A    between atoms: C_6  and  C_8
REMARK                            x       y       z     vdW  Elec       q    Type
REMARK                         _______ _______ _______ _____ _____    ______ ____
ROOT
ATOM      1  N   UNL     1       3.353   7.247  -6.185  0.00  0.00    -0.212 NA
ENDROOT
BRANCH   1   2
ATOM      2  C   UNL     1       2.832   6.449  -7.227  0.00  0.00    +0.125 C 
BRANCH   2   4
ATOM      3  O   UNL     1       2.416   7.634  -9.138  0.00  0.00    -0.218 OA
ATOM      4  C   UNL     1       3.614   6.864  -8.616  0.00  0.00    +0.209 C 
BRANCH   4   5
ATOM      5  C   UNL     1       3.135   5.414  -9.453  0.00  0.00    +0.198 C 
ATOM      6  O   UNL     1       3.834   5.853 -10.741  0.00  0.00    -0.477 OA
ATOM      7  C   UNL     1       5.086   5.506 -11.051  0.00  0.00    +0.135 A 
ATOM      8  C   UNL     1       6.004   5.789 -10.041  0.00  0.00    +0.014 A 
ATOM      9  C   UNL     1       7.325   5.786 -10.350  0.00  0.00    +0.028 A 
ATOM     10  C   UNL     1       7.753   5.722 -11.672  0.00  0.00    +0.140 A 
ATOM     11  C   UNL     1       6.845   5.228 -12.600  0.00  0.00    +0.033 A 
ATOM     12  F   UNL     1       8.896   6.338 -12.089  0.00  0.00    -0.204 F 
ATOM     13  C   UNL     1       5.543   5.410  -8.667  0.00  0.00    +0.033 C 
ATOM     14  C   UNL     1       5.487   5.433 -12.383  0.00  0.00    +0.039 A 
ATOM     15  C   UNL     1       4.378   4.521  -8.847  0.00  0.00    +0.051 C 
ENDBRANCH   4   5
ENDBRANCH   2   4
ENDBRANCH   1   2
BRANCH   1  16
ATOM     16  C   UNL     1       3.779   6.480  -5.066  0.00  0.00    +0.125 C 
BRANCH  16  17
ATOM     17  C   UNL     1       2.809   7.160  -3.914  0.00  0.00    +0.209 C 
ATOM     18  O   UNL     1       3.652   6.551  -2.805  0.00  0.00    -0.218 OA
BRANCH  17  19
ATOM     19  C   UNL     1       1.707   5.822  -3.874  0.00  0.00    +0.198 C 
ATOM     20  O   UNL     1       1.113   6.283  -2.531  0.00  0.00    -0.477 OA
ATOM     21  C   UNL     1      -0.180   5.776  -2.327  0.00  0.00    +0.135 A 
ATOM     22  C   UNL     1      -0.978   5.375  -3.397  0.00  0.00    +0.014 A 
ATOM     23  C   UNL     1      -2.338   5.653  -3.316  0.00  0.00    +0.028 A 
ATOM     24  C   UNL     1      -2.932   6.072  -2.132  0.00  0.00    +0.140 A 
ATOM     25  C   UNL     1      -2.165   5.879  -0.997  0.00  0.00    +0.033 A 
ATOM     26  F   UNL     1      -4.037   6.874  -2.126  0.00  0.00    -0.204 F 
ATOM     27  C   UNL     1      -0.448   5.421  -4.802  0.00  0.00    +0.033 C 
ATOM     28  C   UNL     1      -0.780   5.856  -1.074  0.00  0.00    +0.039 A 
ATOM     29  C   UNL     1       0.519   6.602  -4.709  0.00  0.00    +0.051 C 
ENDBRANCH  17  19
ENDBRANCH  16  17
ENDBRANCH   1  16
TORSDOF 6
ENDMDL
MODEL 6
REMARK VINA RESULT:      -8.7      3.511      8.649
REMARK  Name = 
REMARK  6 active torsions:
REMARK  status: ('A' for Active; 'I' for Inactive)
REMARK    1  A    between atoms: C_2  and  C_3
REMARK    2  A    between atoms: C_2  and  C_19
REMARK    3  A    between atoms: C_3  and  N_4
REMARK    4  A    between atoms: N_4  and  C_5
REMARK    5  A    between atoms: C_5  and  C_6
REMARK    6  A    between atoms: C_6  and  C_8
REMARK                            x       y       z     vdW  Elec       q    Type
REMARK                         _______ _______ _______ _____ _____    ______ ____
ROOT
ATOM      1  N   UNL     1       0.148   5.195  -6.543  0.00  0.00    -0.212 NA
ENDROOT
BRANCH   1   2
ATOM      2  C   UNL     1       0.064   5.525  -7.914  0.00  0.00    +0.125 C 
BRANCH   2   4
ATOM      3  O   UNL     1       1.000   7.026  -9.363  0.00  0.00    -0.218 OA
ATOM      4  C   UNL     1       1.565   5.988  -8.412  0.00  0.00    +0.209 C 
BRANCH   4   5
ATOM      5  C   UNL     1       1.645   4.782  -9.665  0.00  0.00    +0.198 C 
ATOM      6  O   UNL     1       2.707   5.566 -10.438  0.00  0.00    -0.477 OA
ATOM      7  C   UNL     1       4.019   5.366 -10.290  0.00  0.00    +0.135 A 
ATOM      8  C   UNL     1       4.441   5.421  -8.963  0.00  0.00    +0.014 A 
ATOM      9  C   UNL     1       5.768   5.556  -8.712  0.00  0.00    +0.028 A 
ATOM     10  C   UNL     1       6.665   5.852  -9.732  0.00  0.00    +0.140 A 
ATOM     11  C   UNL     1       6.251   5.572 -11.029  0.00  0.00    +0.033 A 
ATOM     12  F   UNL     1       7.780   6.604  -9.514  0.00  0.00    -0.204 F 
ATOM     13  C   UNL     1       3.557   4.682  -8.006  0.00  0.00    +0.033 C 
ATOM     14  C   UNL     1       4.897   5.655 -11.333  0.00  0.00    +0.039 A 
ATOM     15  C   UNL     1       2.683   3.818  -8.825  0.00  0.00    +0.051 C 
ENDBRANCH   4   5
ENDBRANCH   2   4
ENDBRANCH   1   2
BRANCH   1  16
ATOM     16  C   UNL     1      -0.926   5.733  -5.782  0.00  0.00    +0.125 C 
BRANCH  16  17
ATOM     17  C   UNL     1      -0.044   6.497  -4.612  0.00  0.00    +0.209 C 
ATOM     18  O   UNL     1       0.916   5.322  -4.530  0.00  0.00    -0.218 OA
BRANCH  17  19
ATOM     19  C   UNL     1      -0.998   5.869  -3.308  0.00  0.00    +0.198 C 
ATOM     20  O   UNL     1       0.031   6.333  -2.261  0.00  0.00    -0.477 OA
ATOM     21  C   UNL     1      -0.546   6.486  -0.990  0.00  0.00    +0.135 A 
ATOM     22  C   UNL     1      -1.913   6.699  -0.836  0.00  0.00    +0.014 A 
ATOM     23  C   UNL     1      -2.313   7.580   0.163  0.00  0.00    +0.028 A 
ATOM     24  C   UNL     1      -1.430   8.034   1.135  0.00  0.00    +0.140 A 
ATOM     25  C   UNL     1      -0.253   7.314   1.234  0.00  0.00    +0.033 A 
ATOM     26  F   UNL     1      -1.577   9.255   1.727  0.00  0.00    -0.204 F 
ATOM     27  C   UNL     1      -2.822   6.712  -2.032  0.00  0.00    +0.033 C 
ATOM     28  C   UNL     1       0.259   6.640   0.135  0.00  0.00    +0.039 A 
ATOM     29  C   UNL     1      -1.877   7.248  -3.109  0.00  0.00    +0.051 C 
ENDBRANCH  17  19
ENDBRANCH  16  17
ENDBRANCH   1  16
TORSDOF 6
ENDMDL
MODEL 7
REMARK VINA RESULT:      -8.5      2.998      8.775
REMARK  Name = 
REMARK  6 active torsions:
REMARK  status: ('A' for Active; 'I' for Inactive)
REMARK    1  A    between atoms: C_2  and  C_3
REMARK    2  A    between atoms: C_2  and  C_19
REMARK    3  A    between atoms: C_3  and  N_4
REMARK    4  A    between atoms: N_4  and  C_5
REMARK    5  A    between atoms: C_5  and  C_6
REMARK    6  A    between atoms: C_6  and  C_8
REMARK                            x       y       z     vdW  Elec       q    Type
REMARK                         _______ _______ _______ _____ _____    ______ ____
ROOT
ATOM      1  N   UNL     1       2.137   7.009  -7.648  0.00  0.00    -0.212 NA
ENDROOT
BRANCH   1   2
ATOM      2  C   UNL     1       3.335   6.298  -7.879  0.00  0.00    +0.125 C 
BRANCH   2   4
ATOM      3  O   UNL     1       2.473   6.215  -9.994  0.00  0.00    -0.218 OA
ATOM      4  C   UNL     1       3.819   6.614  -9.421  0.00  0.00    +0.209 C 
BRANCH   4   5
ATOM      5  C   UNL     1       4.475   5.020  -9.664  0.00  0.00    +0.198 C 
ATOM      6  O   UNL     1       4.284   5.105 -11.179  0.00  0.00    -0.477 OA
ATOM      7  C   UNL     1       5.238   5.523 -12.016  0.00  0.00    +0.135 A 
ATOM      8  C   UNL     1       5.782   6.756 -11.662  0.00  0.00    +0.014 A 
ATOM      9  C   UNL     1       6.511   7.430 -12.588  0.00  0.00    +0.028 A 
ATOM     10  C   UNL     1       6.539   7.021 -13.916  0.00  0.00    +0.140 A 
ATOM     11  C   UNL     1       6.181   5.702 -14.172  0.00  0.00    +0.033 A 
ATOM     12  F   UNL     1       6.660   7.911 -14.941  0.00  0.00    -0.204 F 
ATOM     13  C   UNL     1       6.088   6.898 -10.203  0.00  0.00    +0.033 C 
ATOM     14  C   UNL     1       5.254   5.087 -13.339  0.00  0.00    +0.039 A 
ATOM     15  C   UNL     1       6.038   5.537  -9.631  0.00  0.00    +0.051 C 
ENDBRANCH   4   5
ENDBRANCH   2   4
ENDBRANCH   1   2
BRANCH   1  16
ATOM     16  C   UNL     1       1.026   6.153  -7.414  0.00  0.00    +0.125 C 
BRANCH  16  17
ATOM     17  C   UNL     1       1.352   5.746  -5.846  0.00  0.00    +0.209 C 
ATOM     18  O   UNL     1       1.306   4.267  -6.192  0.00  0.00    -0.218 OA
BRANCH  17  19
ATOM     19  C   UNL     1      -0.316   5.734  -5.372  0.00  0.00    +0.198 C 
ATOM     20  O   UNL     1       0.046   5.396  -3.915  0.00  0.00    -0.477 OA
ATOM     21  C   UNL     1      -0.969   5.773  -3.021  0.00  0.00    +0.135 A 
ATOM     22  C   UNL     1      -1.893   6.763  -3.350  0.00  0.00    +0.014 A 
ATOM     23  C   UNL     1      -2.289   7.628  -2.335  0.00  0.00    +0.028 A 
ATOM     24  C   UNL     1      -1.992   7.377  -1.000  0.00  0.00    +0.140 A 
ATOM     25  C   UNL     1      -1.581   6.084  -0.730  0.00  0.00    +0.033 A 
ATOM     26  F   UNL     1      -1.830   8.387  -0.097  0.00  0.00    -0.204 F 
ATOM     27  C   UNL     1      -1.861   7.416  -4.702  0.00  0.00    +0.033 C 
ATOM     28  C   UNL     1      -0.954   5.322  -1.704  0.00  0.00    +0.039 A 
ATOM     29  C   UNL     1      -0.368   7.344  -5.025  0.00  0.00    +0.051 C 
ENDBRANCH  17  19
ENDBRANCH  16  17
ENDBRANCH   1  16
TORSDOF 6
ENDMDL
MODEL 8
REMARK VINA RESULT:      -8.4      3.553      5.200
REMARK  Name = 
REMARK  6 active torsions:
REMARK  status: ('A' for Active; 'I' for Inactive)
REMARK    1  A    between atoms: C_2  and  C_3
REMARK    2  A    between atoms: C_2  and  C_19
REMARK    3  A    between atoms: C_3  and  N_4
REMARK    4  A    between atoms: N_4  and  C_5
REMARK    5  A    between atoms: C_5  and  C_6
REMARK    6  A    between atoms: C_6  and  C_8
REMARK                            x       y       z     vdW  Elec       q    Type
REMARK                         _______ _______ _______ _____ _____    ______ ____
ROOT
ATOM      1  N   UNL     1       4.569   5.642  -6.541  0.00  0.00    -0.212 NA
ENDROOT
BRANCH   1   2
ATOM      2  C   UNL     1       4.252   5.853  -5.181  0.00  0.00    +0.125 C 
BRANCH   2   4
ATOM      3  O   UNL     1       3.146   7.476  -4.011  0.00  0.00    -0.218 OA
ATOM      4  C   UNL     1       2.745   6.514  -5.113  0.00  0.00    +0.209 C 
BRANCH   4   5
ATOM      5  C   UNL     1       2.157   5.340  -3.971  0.00  0.00    +0.198 C 
ATOM      6  O   UNL     1       1.061   6.282  -3.472  0.00  0.00    -0.477 OA
ATOM      7  C   UNL     1      -0.182   6.287  -3.963  0.00  0.00    +0.135 A 
ATOM      8  C   UNL     1      -0.226   6.402  -5.351  0.00  0.00    +0.014 A 
ATOM      9  C   UNL     1      -1.404   6.741  -5.934  0.00  0.00    +0.028 A 
ATOM     10  C   UNL     1      -2.483   7.176  -5.172  0.00  0.00    +0.140 A 
ATOM     11  C   UNL     1      -2.472   6.840  -3.824  0.00  0.00    +0.033 A 
ATOM     12  F   UNL     1      -3.375   8.091  -5.645  0.00  0.00    -0.204 F 
ATOM     13  C   UNL     1       0.757   5.532  -6.073  0.00  0.00    +0.033 C 
ATOM     14  C   UNL     1      -1.249   6.713  -3.176  0.00  0.00    +0.039 A 
ATOM     15  C   UNL     1       1.244   4.546  -5.088  0.00  0.00    +0.051 C 
ENDBRANCH   4   5
ENDBRANCH   2   4
ENDBRANCH   1   2
BRANCH   1  16
ATOM     16  C   UNL     1       3.720   6.368  -7.422  0.00  0.00    +0.125 C 
BRANCH  16  17
ATOM     17  C   UNL     1       3.914   5.440  -8.775  0.00  0.00    +0.209 C 
ATOM     18  O   UNL     1       4.836   6.480  -9.390  0.00  0.00    -0.218 OA
BRANCH  17  19
ATOM     19  C   UNL     1       2.537   6.113  -9.585  0.00  0.00    +0.198 C 
ATOM     20  O   UNL     1       3.165   5.866 -10.969  0.00  0.00    -0.477 OA
ATOM     21  C   UNL     1       2.193   5.798 -11.981  0.00  0.00    +0.135 A 
ATOM     22  C   UNL     1       0.870   5.474 -11.694  0.00  0.00    +0.014 A 
ATOM     23  C   UNL     1       0.196   4.673 -12.610  0.00  0.00    +0.028 A 
ATOM     24  C   UNL     1       0.711   4.413 -13.875  0.00  0.00    +0.140 A 
ATOM     25  C   UNL     1       1.743   5.249 -14.265  0.00  0.00    +0.033 A 
ATOM     26  F   UNL     1       0.432   3.256 -14.541  0.00  0.00    -0.204 F 
ATOM     27  C   UNL     1       0.431   5.244 -10.276  0.00  0.00    +0.033 C 
ATOM     28  C   UNL     1       2.567   5.844 -13.321  0.00  0.00    +0.039 A 
ATOM     29  C   UNL     1       1.717   4.686  -9.662  0.00  0.00    +0.051 C 
ENDBRANCH  17  19
ENDBRANCH  16  17
ENDBRANCH   1  16
TORSDOF 6
ENDMDL
MODEL 9
REMARK VINA RESULT:      -8.4      3.318      8.442
REMARK  Name = 
REMARK  6 active torsions:
REMARK  status: ('A' for Active; 'I' for Inactive)
REMARK    1  A    between atoms: C_2  and  C_3
REMARK    2  A    between atoms: C_2  and  C_19
REMARK    3  A    between atoms: C_3  and  N_4
REMARK    4  A    between atoms: N_4  and  C_5
REMARK    5  A    between atoms: C_5  and  C_6
REMARK    6  A    between atoms: C_6  and  C_8
REMARK                            x       y       z     vdW  Elec       q    Type
REMARK                         _______ _______ _______ _____ _____    ______ ____
ROOT
ATOM      1  N   UNL     1       0.799   4.745  -7.010  0.00  0.00    -0.212 NA
ENDROOT
BRANCH   1   2
ATOM      2  C   UNL     1       0.963   5.309  -8.295  0.00  0.00    +0.125 C 
BRANCH   2   4
ATOM      3  O   UNL     1       2.622   3.835  -7.743  0.00  0.00    -0.218 OA
ATOM      4  C   UNL     1       2.435   4.838  -8.865  0.00  0.00    +0.209 C 
BRANCH   4   5
ATOM      5  C   UNL     1       3.295   6.078  -7.996  0.00  0.00    +0.198 C 
ATOM      6  O   UNL     1       4.646   5.407  -8.253  0.00  0.00    -0.477 OA
ATOM      7  C   UNL     1       5.434   5.717  -9.287  0.00  0.00    +0.135 A 
ATOM      8  C   UNL     1       4.778   5.666 -10.515  0.00  0.00    +0.014 A 
ATOM      9  C   UNL     1       5.527   5.641 -11.647  0.00  0.00    +0.028 A 
ATOM     10  C   UNL     1       6.904   5.449 -11.592  0.00  0.00    +0.140 A 
ATOM     11  C   UNL     1       7.525   5.724 -10.379  0.00  0.00    +0.033 A 
ATOM     12  F   UNL     1       7.579   4.791 -12.576  0.00  0.00    -0.204 F 
ATOM     13  C   UNL     1       3.421   6.302 -10.516  0.00  0.00    +0.033 C 
ATOM     14  C   UNL     1       6.811   5.531  -9.202  0.00  0.00    +0.039 A 
ATOM     15  C   UNL     1       3.336   7.106  -9.281  0.00  0.00    +0.051 C 
ENDBRANCH   4   5
ENDBRANCH   2   4
ENDBRANCH   1   2
BRANCH   1  16
ATOM     16  C   UNL     1      -0.344   5.251  -6.331  0.00  0.00    +0.125 C 
BRANCH  16  17
ATOM     17  C   UNL     1       0.428   6.054  -5.110  0.00  0.00    +0.209 C 
ATOM     18  O   UNL     1       1.374   4.883  -4.901  0.00  0.00    -0.218 OA
BRANCH  17  19
ATOM     19  C   UNL     1      -0.644   5.469  -3.880  0.00  0.00    +0.198 C 
ATOM     20  O   UNL     1       0.275   5.986  -2.759  0.00  0.00    -0.477 OA
ATOM     21  C   UNL     1      -0.423   6.185  -1.557  0.00  0.00    +0.135 A 
ATOM     22  C   UNL     1      -1.801   6.389  -1.545  0.00  0.00    +0.014 A 
ATOM     23  C   UNL     1      -2.302   7.305  -0.627  0.00  0.00    +0.028 A 
ATOM     24  C   UNL     1      -1.521   7.809   0.407  0.00  0.00    +0.140 A 
ATOM     25  C   UNL     1      -0.354   7.106   0.649  0.00  0.00    +0.033 A 
ATOM     26  F   UNL     1      -1.734   9.051   0.930  0.00  0.00    -0.204 F 
ATOM     27  C   UNL     1      -2.589   6.344  -2.823  0.00  0.00    +0.033 C 
ATOM     28  C   UNL     1       0.267   6.394  -0.367  0.00  0.00    +0.039 A 
ATOM     29  C   UNL     1      -1.548   6.846  -3.825  0.00  0.00    +0.051 C 
ENDBRANCH  17  19
ENDBRANCH  16  17
ENDBRANCH   1  16
TORSDOF 6
ENDMDL
