MODEL 1
REMARK VINA RESULT:      -7.3      0.000      0.000
REMARK  Name = 
REMARK  5 active torsions:
REMARK  status: ('A' for Active; 'I' for Inactive)
REMARK    1  A    between atoms: C_2  and  C_3
REMARK    2  A    between atoms: C_6  and  C_7
REMARK    3  A    between atoms: C_7  and  C_8
REMARK    4  A    between atoms: C_7  and  N_16
REMARK    5  A    between atoms: C_11  and  C_12
REMARK                            x       y       z     vdW  Elec       q    Type
REMARK                         _______ _______ _______ _____ _____    ______ ____
ROOT
ATOM      1  C   UNL     1       3.221   5.510  -8.672  0.00  0.00    +0.151 C 
ENDROOT
BRANCH   1   5
ATOM      2  C   UNL     1       6.875   5.986 -10.669  0.00  0.00    +0.068 A 
ATOM      3  C   UNL     1       5.819   6.808 -11.046  0.00  0.00    +0.010 A 
ATOM      4  C   UNL     1       4.584   6.682 -10.439  0.00  0.00    -0.001 A 
ATOM      5  C   UNL     1       4.481   6.022  -9.228  0.00  0.00    +0.004 A 
ATOM      6  C   UNL     1       5.650   5.480  -8.707  0.00  0.00    -0.001 A 
ATOM      7  C   UNL     1       6.818   5.389  -9.419  0.00  0.00    +0.010 A 
BRANCH   2   9
ATOM      8  N   UNL     1       9.063   5.981 -12.084  0.00  0.00    -0.191 NA
ATOM      9  C   UNL     1       8.089   6.017 -11.441  0.00  0.00    +0.100 C 
ENDBRANCH   2   9
ENDBRANCH   1   5
BRANCH   1  10
ATOM     10  C   UNL     1       3.040   5.737  -7.237  0.00  0.00    +0.004 A 
ATOM     11  C   UNL     1       3.268   6.931  -6.587  0.00  0.00    -0.001 A 
ATOM     12  C   UNL     1       3.466   6.879  -5.212  0.00  0.00    +0.010 A 
ATOM     13  C   UNL     1       3.330   5.692  -4.500  0.00  0.00    +0.068 A 
ATOM     14  C   UNL     1       2.610   4.698  -5.136  0.00  0.00    +0.010 A 
ATOM     15  C   UNL     1       2.416   4.728  -6.513  0.00  0.00    -0.001 A 
BRANCH  13  16
ATOM     16  C   UNL     1       4.041   5.461  -3.262  0.00  0.00    +0.100 C 
ATOM     17  N   UNL     1       4.211   5.107  -2.162  0.00  0.00    -0.191 NA
ENDBRANCH  13  16
ENDBRANCH   1  10
BRANCH   1  18
ATOM     18  N   UNL     1       2.058   5.840  -9.452  0.00  0.00    -0.224 N 
ATOM     19  N   UNL     1       1.340   6.959  -9.450  0.00  0.00    -0.145 NA
ATOM     20  C   UNL     1       0.560   6.852 -10.551  0.00  0.00    +0.221 A 
ATOM     21  N   UNL     1       0.410   5.532 -10.800  0.00  0.00    -0.201 NA
ATOM     22  C   UNL     1       1.375   4.877 -10.120  0.00  0.00    +0.198 A 
ENDBRANCH   1  18
TORSDOF 5
ENDMDL
MODEL 2
REMARK VINA RESULT:      -7.2      3.153      4.810
REMARK  Name = 
REMARK  5 active torsions:
REMARK  status: ('A' for Active; 'I' for Inactive)
REMARK    1  A    between atoms: C_2  and  C_3
REMARK    2  A    between atoms: C_6  and  C_7
REMARK    3  A    between atoms: C_7  and  C_8
REMARK    4  A    between atoms: C_7  and  N_16
REMARK    5  A    between atoms: C_11  and  C_12
REMARK                            x       y       z     vdW  Elec       q    Type
REMARK                         _______ _______ _______ _____ _____    ______ ____
ROOT
ATOM      1  C   UNL     1       2.068   6.669  -6.309  0.00  0.00    +0.151 C 
ENDROOT
BRANCH   1   5
ATOM      2  C   UNL     1       3.958   5.701  -9.924  0.00  0.00    +0.068 A 
ATOM      3  C   UNL     1       3.592   4.655  -9.084  0.00  0.00    +0.010 A 
ATOM      4  C   UNL     1       2.985   4.913  -7.869  0.00  0.00    -0.001 A 
ATOM      5  C   UNL     1       2.408   6.149  -7.641  0.00  0.00    +0.004 A 
ATOM      6  C   UNL     1       2.513   7.089  -8.661  0.00  0.00    -0.001 A 
ATOM      7  C   UNL     1       3.319   6.920  -9.757  0.00  0.00    +0.010 A 
BRANCH   2   9
ATOM      8  N   UNL     1       5.331   5.164 -12.072  0.00  0.00    -0.191 NA
ATOM      9  C   UNL     1       4.747   5.410 -11.092  0.00  0.00    +0.100 C 
ENDBRANCH   2   9
ENDBRANCH   1   5
BRANCH   1  10
ATOM     10  C   UNL     1       0.643   6.632  -5.976  0.00  0.00    +0.004 A 
ATOM     11  C   UNL     1      -0.019   7.569  -5.213  0.00  0.00    -0.001 A 
ATOM     12  C   UNL     1      -1.226   7.186  -4.640  0.00  0.00    +0.010 A 
ATOM     13  C   UNL     1      -1.802   5.949  -4.910  0.00  0.00    +0.068 A 
ATOM     14  C   UNL     1      -1.345   5.320  -6.053  0.00  0.00    +0.010 A 
ATOM     15  C   UNL     1      -0.133   5.681  -6.631  0.00  0.00    -0.001 A 
BRANCH  13  16
ATOM     16  C   UNL     1      -2.684   5.297  -3.967  0.00  0.00    +0.100 C 
ATOM     17  N   UNL     1      -3.018   4.802  -2.964  0.00  0.00    -0.191 NA
ENDBRANCH  13  16
ENDBRANCH   1  10
BRANCH   1  18
ATOM     18  N   UNL     1       2.913   6.176  -5.254  0.00  0.00    -0.224 N 
ATOM     19  N   UNL     1       2.652   5.246  -4.341  0.00  0.00    -0.145 NA
ATOM     20  C   UNL     1       3.860   4.972  -3.795  0.00  0.00    +0.221 A 
ATOM     21  N   UNL     1       4.622   6.077  -3.953  0.00  0.00    -0.201 NA
ATOM     22  C   UNL     1       4.037   6.843  -4.898  0.00  0.00    +0.198 A 
ENDBRANCH   1  18
TORSDOF 5
ENDMDL
MODEL 3
REMARK VINA RESULT:      -7.2      3.171      6.713
REMARK  Name = 
REMARK  5 active torsions:
REMARK  status: ('A' for Active; 'I' for Inactive)
REMARK    1  A    between atoms: C_2  and  C_3
REMARK    2  A    between atoms: C_6  and  C_7
REMARK    3  A    between atoms: C_7  and  C_8
REMARK    4  A    between atoms: C_7  and  N_16
REMARK    5  A    between atoms: C_11  and  C_12
REMARK                            x       y       z     vdW  Elec       q    Type
REMARK                         _______ _______ _______ _____ _____    ______ ____
ROOT
ATOM      1  C   UNL     1       2.192   5.955  -5.888  0.00  0.00    +0.151 C 
ENDROOT
BRANCH   1   5
ATOM      2  C   UNL     1      -1.563   6.075  -4.027  0.00  0.00    +0.068 A 
ATOM      3  C   UNL     1      -1.521   6.200  -5.411  0.00  0.00    +0.010 A 
ATOM      4  C   UNL     1      -0.311   6.190  -6.078  0.00  0.00    -0.001 A 
ATOM      5  C   UNL     1       0.815   5.693  -5.447  0.00  0.00    +0.004 A 
ATOM      6  C   UNL     1       0.659   5.263  -4.134  0.00  0.00    -0.001 A 
ATOM      7  C   UNL     1      -0.471   5.498  -3.395  0.00  0.00    +0.010 A 
BRANCH   2   9
ATOM      8  N   UNL     1      -3.853   6.372  -2.821  0.00  0.00    -0.191 NA
ATOM      9  C   UNL     1      -2.817   6.271  -3.349  0.00  0.00    +0.100 C 
ENDBRANCH   2   9
ENDBRANCH   1   5
BRANCH   1  10
ATOM     10  C   UNL     1       3.184   6.021  -4.813  0.00  0.00    +0.004 A 
ATOM     11  C   UNL     1       3.817   4.934  -4.249  0.00  0.00    -0.001 A 
ATOM     12  C   UNL     1       4.385   5.110  -2.992  0.00  0.00    +0.010 A 
ATOM     13  C   UNL     1       4.414   6.355  -2.373  0.00  0.00    +0.068 A 
ATOM     14  C   UNL     1       4.235   7.439  -3.212  0.00  0.00    +0.010 A 
ATOM     15  C   UNL     1       3.655   7.282  -4.467  0.00  0.00    -0.001 A 
BRANCH  13  16
ATOM     16  C   UNL     1       4.453   6.488  -0.933  0.00  0.00    +0.100 C 
ATOM     17  N   UNL     1       4.458   6.150   0.184  0.00  0.00    -0.191 NA
ENDBRANCH  13  16
ENDBRANCH   1  10
BRANCH   1  18
ATOM     18  N   UNL     1       2.614   5.151  -7.004  0.00  0.00    -0.224 N 
ATOM     19  N   UNL     1       2.285   3.898  -7.302  0.00  0.00    -0.145 NA
ATOM     20  C   UNL     1       2.717   3.737  -8.575  0.00  0.00    +0.221 A 
ATOM     21  N   UNL     1       3.736   4.607  -8.756  0.00  0.00    -0.201 NA
ATOM     22  C   UNL     1       3.666   5.527  -7.771  0.00  0.00    +0.198 A 
ENDBRANCH   1  18
TORSDOF 5
ENDMDL
MODEL 4
REMARK VINA RESULT:      -7.2      1.921      6.444
REMARK  Name = 
REMARK  5 active torsions:
REMARK  status: ('A' for Active; 'I' for Inactive)
REMARK    1  A    between atoms: C_2  and  C_3
REMARK    2  A    between atoms: C_6  and  C_7
REMARK    3  A    between atoms: C_7  and  C_8
REMARK    4  A    between atoms: C_7  and  N_16
REMARK    5  A    between atoms: C_11  and  C_12
REMARK                            x       y       z     vdW  Elec       q    Type
REMARK                         _______ _______ _______ _____ _____    ______ ____
ROOT
ATOM      1  C   UNL     1       3.057   6.516  -6.383  0.00  0.00    +0.151 C 
ENDROOT
BRANCH   1   5
ATOM      2  C   UNL     1       4.209   6.289  -2.358  0.00  0.00    +0.068 A 
ATOM      3  C   UNL     1       4.037   5.095  -3.051  0.00  0.00    +0.010 A 
ATOM      4  C   UNL     1       3.636   5.107  -4.374  0.00  0.00    -0.001 A 
ATOM      5  C   UNL     1       3.762   6.266  -5.117  0.00  0.00    +0.004 A 
ATOM      6  C   UNL     1       4.259   7.384  -4.457  0.00  0.00    -0.001 A 
ATOM      7  C   UNL     1       4.422   7.442  -3.098  0.00  0.00    +0.010 A 
BRANCH   2   9
ATOM      8  N   UNL     1       4.579   6.211   0.219  0.00  0.00    -0.191 NA
ATOM      9  C   UNL     1       4.449   6.240  -0.940  0.00  0.00    +0.100 C 
ENDBRANCH   2   9
ENDBRANCH   1   5
BRANCH   1  10
ATOM     10  C   UNL     1       3.793   6.132  -7.587  0.00  0.00    +0.004 A 
ATOM     11  C   UNL     1       4.766   5.158  -7.647  0.00  0.00    -0.001 A 
ATOM     12  C   UNL     1       5.650   5.205  -8.720  0.00  0.00    +0.010 A 
ATOM     13  C   UNL     1       5.496   6.125  -9.751  0.00  0.00    +0.068 A 
ATOM     14  C   UNL     1       4.237   6.686  -9.862  0.00  0.00    +0.010 A 
ATOM     15  C   UNL     1       3.347   6.661  -8.794  0.00  0.00    -0.001 A 
BRANCH  13  16
ATOM     16  C   UNL     1       6.622   6.587 -10.534  0.00  0.00    +0.100 C 
ATOM     17  N   UNL     1       7.688   7.010 -10.748  0.00  0.00    -0.191 NA
ENDBRANCH  13  16
ENDBRANCH   1  10
BRANCH   1  18
ATOM     18  N   UNL     1       1.687   6.076  -6.388  0.00  0.00    -0.224 N 
ATOM     19  N   UNL     1       1.151   5.020  -6.991  0.00  0.00    -0.145 NA
ATOM     20  C   UNL     1      -0.082   4.917  -6.442  0.00  0.00    +0.221 A 
ATOM     21  N   UNL     1      -0.432   6.155  -6.027  0.00  0.00    -0.201 NA
ATOM     22  C   UNL     1       0.694   6.898  -5.968  0.00  0.00    +0.198 A 
ENDBRANCH   1  18
TORSDOF 5
ENDMDL
MODEL 5
REMARK VINA RESULT:      -7.2      1.247      6.031
REMARK  Name = 
REMARK  5 active torsions:
REMARK  status: ('A' for Active; 'I' for Inactive)
REMARK    1  A    between atoms: C_2  and  C_3
REMARK    2  A    between atoms: C_6  and  C_7
REMARK    3  A    between atoms: C_7  and  C_8
REMARK    4  A    between atoms: C_7  and  N_16
REMARK    5  A    between atoms: C_11  and  C_12
REMARK                            x       y       z     vdW  Elec       q    Type
REMARK                         _______ _______ _______ _____ _____    ______ ____
ROOT
ATOM      1  C   UNL     1       3.253   6.733  -9.960  0.00  0.00    +0.151 C 
ENDROOT
BRANCH   1   5
ATOM      2  C   UNL     1       3.431   5.874  -5.860  0.00  0.00    +0.068 A 
ATOM      3  C   UNL     1       4.499   5.470  -6.654  0.00  0.00    +0.010 A 
ATOM      4  C   UNL     1       4.487   5.706  -8.016  0.00  0.00    -0.001 A 
ATOM      5  C   UNL     1       3.621   6.649  -8.540  0.00  0.00    +0.004 A 
ATOM      6  C   UNL     1       2.770   7.286  -7.643  0.00  0.00    -0.001 A 
ATOM      7  C   UNL     1       2.609   6.881  -6.344  0.00  0.00    +0.010 A 
BRANCH   2   9
ATOM      8  N   UNL     1       3.319   5.067  -3.386  0.00  0.00    -0.191 NA
ATOM      9  C   UNL     1       3.390   5.456  -4.484  0.00  0.00    +0.100 C 
ENDBRANCH   2   9
ENDBRANCH   1   5
BRANCH   1  10
ATOM     10  C   UNL     1       4.367   6.586 -10.897  0.00  0.00    +0.004 A 
ATOM     11  C   UNL     1       4.516   5.555 -11.800  0.00  0.00    -0.001 A 
ATOM     12  C   UNL     1       5.793   5.325 -12.299  0.00  0.00    +0.010 A 
ATOM     13  C   UNL     1       6.858   6.164 -11.992  0.00  0.00    +0.068 A 
ATOM     14  C   UNL     1       6.510   7.419 -11.527  0.00  0.00    +0.010 A 
ATOM     15  C   UNL     1       5.241   7.662 -11.010  0.00  0.00    -0.001 A 
BRANCH  13  16
ATOM     16  C   UNL     1       8.225   5.691 -11.994  0.00  0.00    +0.100 C 
ATOM     17  N   UNL     1       9.389   5.748 -12.074  0.00  0.00    -0.191 NA
ENDBRANCH  13  16
ENDBRANCH   1  10
BRANCH   1  18
ATOM     18  N   UNL     1       2.102   5.946 -10.315  0.00  0.00    -0.224 N 
ATOM     19  N   UNL     1       1.807   4.696  -9.974  0.00  0.00    -0.145 NA
ATOM     20  C   UNL     1       0.508   4.555 -10.328  0.00  0.00    +0.221 A 
ATOM     21  N   UNL     1       0.276   5.432 -11.330  0.00  0.00    -0.201 NA
ATOM     22  C   UNL     1       1.277   6.338 -11.317  0.00  0.00    +0.198 A 
ENDBRANCH   1  18
TORSDOF 5
ENDMDL
MODEL 6
REMARK VINA RESULT:      -7.1      3.268      7.840
REMARK  Name = 
REMARK  5 active torsions:
REMARK  status: ('A' for Active; 'I' for Inactive)
REMARK    1  A    between atoms: C_2  and  C_3
REMARK    2  A    between atoms: C_6  and  C_7
REMARK    3  A    between atoms: C_7  and  C_8
REMARK    4  A    between atoms: C_7  and  N_16
REMARK    5  A    between atoms: C_11  and  C_12
REMARK                            x       y       z     vdW  Elec       q    Type
REMARK                         _______ _______ _______ _____ _____    ______ ____
ROOT
ATOM      1  C   UNL     1       0.968   5.098  -8.550  0.00  0.00    +0.151 C 
ENDROOT
BRANCH   1   5
ATOM      2  C   UNL     1      -1.455   5.983  -5.245  0.00  0.00    +0.068 A 
ATOM      3  C   UNL     1      -0.240   6.650  -5.354  0.00  0.00    +0.010 A 
ATOM      4  C   UNL     1       0.612   6.383  -6.411  0.00  0.00    -0.001 A 
ATOM      5  C   UNL     1       0.124   5.752  -7.540  0.00  0.00    +0.004 A 
ATOM      6  C   UNL     1      -1.216   5.382  -7.523  0.00  0.00    -0.001 A 
ATOM      7  C   UNL     1      -1.992   5.422  -6.394  0.00  0.00    +0.010 A 
BRANCH   2   9
ATOM      8  N   UNL     1      -2.850   6.345  -3.075  0.00  0.00    -0.191 NA
ATOM      9  C   UNL     1      -2.232   6.148  -4.045  0.00  0.00    +0.100 C 
ENDBRANCH   2   9
ENDBRANCH   1   5
BRANCH   1  10
ATOM     10  C   UNL     1       0.575   5.343  -9.938  0.00  0.00    +0.004 A 
ATOM     11  C   UNL     1       0.184   4.374 -10.836  0.00  0.00    -0.001 A 
ATOM     12  C   UNL     1       0.258   4.691 -12.188  0.00  0.00    +0.010 A 
ATOM     13  C   UNL     1       0.604   5.966 -12.620  0.00  0.00    +0.068 A 
ATOM     14  C   UNL     1       0.468   6.969 -11.677  0.00  0.00    +0.010 A 
ATOM     15  C   UNL     1       0.407   6.669 -10.320  0.00  0.00    -0.001 A 
BRANCH  13  16
ATOM     16  C   UNL     1       1.228   6.192 -13.905  0.00  0.00    +0.100 C 
ATOM     17  N   UNL     1       2.039   6.116 -14.742  0.00  0.00    -0.191 NA
ENDBRANCH  13  16
ENDBRANCH   1  10
BRANCH   1  18
ATOM     18  N   UNL     1       2.380   5.251  -8.322  0.00  0.00    -0.224 N 
ATOM     19  N   UNL     1       3.062   6.349  -8.011  0.00  0.00    -0.145 NA
ATOM     20  C   UNL     1       4.277   5.886  -7.635  0.00  0.00    +0.221 A 
ATOM     21  N   UNL     1       4.459   4.703  -8.263  0.00  0.00    -0.201 NA
ATOM     22  C   UNL     1       3.250   4.278  -8.687  0.00  0.00    +0.198 A 
ENDBRANCH   1  18
TORSDOF 5
ENDMDL
MODEL 7
REMARK VINA RESULT:      -7.0      2.263      5.897
REMARK  Name = 
REMARK  5 active torsions:
REMARK  status: ('A' for Active; 'I' for Inactive)
REMARK    1  A    between atoms: C_2  and  C_3
REMARK    2  A    between atoms: C_6  and  C_7
REMARK    3  A    between atoms: C_7  and  C_8
REMARK    4  A    between atoms: C_7  and  N_16
REMARK    5  A    between atoms: C_11  and  C_12
REMARK                            x       y       z     vdW  Elec       q    Type
REMARK                         _______ _______ _______ _____ _____    ______ ____
ROOT
ATOM      1  C   UNL     1       3.281   5.716  -9.860  0.00  0.00    +0.151 C 
ENDROOT
BRANCH   1   5
ATOM      2  C   UNL     1       1.149   6.848 -13.288  0.00  0.00    +0.068 A 
ATOM      3  C   UNL     1       2.182   5.929 -13.441  0.00  0.00    +0.010 A 
ATOM      4  C   UNL     1       2.934   5.535 -12.350  0.00  0.00    -0.001 A 
ATOM      5  C   UNL     1       2.451   5.747 -11.072  0.00  0.00    +0.004 A 
ATOM      6  C   UNL     1       1.226   6.396 -10.964  0.00  0.00    -0.001 A 
ATOM      7  C   UNL     1       0.602   7.003 -12.023  0.00  0.00    +0.010 A 
BRANCH   2   9
ATOM      8  N   UNL     1      -0.034   7.740 -15.430  0.00  0.00    -0.191 NA
ATOM      9  C   UNL     1       0.507   7.374 -14.463  0.00  0.00    +0.100 C 
ENDBRANCH   2   9
ENDBRANCH   1   5
BRANCH   1  10
ATOM     10  C   UNL     1       4.636   6.242 -10.024  0.00  0.00    +0.004 A 
ATOM     11  C   UNL     1       4.965   7.393 -10.707  0.00  0.00    -0.001 A 
ATOM     12  C   UNL     1       6.281   7.526 -11.135  0.00  0.00    +0.010 A 
ATOM     13  C   UNL     1       7.256   6.594 -10.796  0.00  0.00    +0.068 A 
ATOM     14  C   UNL     1       6.955   5.790  -9.712  0.00  0.00    +0.010 A 
ATOM     15  C   UNL     1       5.642   5.634  -9.281  0.00  0.00    -0.001 A 
BRANCH  13  16
ATOM     16  C   UNL     1       8.418   6.370 -11.628  0.00  0.00    +0.100 C 
ATOM     17  N   UNL     1       9.110   5.825 -12.393  0.00  0.00    -0.191 NA
ENDBRANCH  13  16
ENDBRANCH   1  10
BRANCH   1  18
ATOM     18  N   UNL     1       2.617   6.209  -8.682  0.00  0.00    -0.224 N 
ATOM     19  N   UNL     1       2.670   7.421  -8.139  0.00  0.00    -0.145 NA
ATOM     20  C   UNL     1       1.658   7.424  -7.240  0.00  0.00    +0.221 A 
ATOM     21  N   UNL     1       1.453   6.139  -6.874  0.00  0.00    -0.201 NA
ATOM     22  C   UNL     1       2.044   5.353  -7.800  0.00  0.00    +0.198 A 
ENDBRANCH   1  18
TORSDOF 5
ENDMDL
MODEL 8
REMARK VINA RESULT:      -6.9      1.855      6.112
REMARK  Name = 
REMARK  5 active torsions:
REMARK  status: ('A' for Active; 'I' for Inactive)
REMARK    1  A    between atoms: C_2  and  C_3
REMARK    2  A    between atoms: C_6  and  C_7
REMARK    3  A    between atoms: C_7  and  C_8
REMARK    4  A    between atoms: C_7  and  N_16
REMARK    5  A    between atoms: C_11  and  C_12
REMARK                            x       y       z     vdW  Elec       q    Type
REMARK                         _______ _______ _______ _____ _____    ______ ____
ROOT
ATOM      1  C   UNL     1       3.089   6.682 -10.231  0.00  0.00    +0.151 C 
ENDROOT
BRANCH   1   5
ATOM      2  C   UNL     1       4.113   6.413  -6.175  0.00  0.00    +0.068 A 
ATOM      3  C   UNL     1       2.971   7.132  -6.508  0.00  0.00    +0.010 A 
ATOM      4  C   UNL     1       2.595   7.274  -7.831  0.00  0.00    -0.001 A 
ATOM      5  C   UNL     1       3.114   6.419  -8.786  0.00  0.00    +0.004 A 
ATOM      6  C   UNL     1       4.035   5.473  -8.347  0.00  0.00    -0.001 A 
ATOM      7  C   UNL     1       4.590   5.491  -7.095  0.00  0.00    +0.010 A 
BRANCH   2   9
ATOM      8  N   UNL     1       5.012   6.456  -3.730  0.00  0.00    -0.191 NA
ATOM      9  C   UNL     1       4.576   6.437  -4.813  0.00  0.00    +0.100 C 
ENDBRANCH   2   9
ENDBRANCH   1   5
BRANCH   1  10
ATOM     10  C   UNL     1       4.386   6.580 -10.901  0.00  0.00    +0.004 A 
ATOM     11  C   UNL     1       5.389   7.523 -10.838  0.00  0.00    -0.001 A 
ATOM     12  C   UNL     1       6.354   7.494 -11.839  0.00  0.00    +0.010 A 
ATOM     13  C   UNL     1       6.375   6.491 -12.803  0.00  0.00    +0.068 A 
ATOM     14  C   UNL     1       5.673   5.345 -12.480  0.00  0.00    +0.010 A 
ATOM     15  C   UNL     1       4.695   5.360 -11.492  0.00  0.00    -0.001 A 
BRANCH  13  16
ATOM     16  C   UNL     1       6.943   6.709 -14.115  0.00  0.00    +0.100 C 
ATOM     17  N   UNL     1       6.998   6.718 -15.281  0.00  0.00    -0.191 NA
ENDBRANCH  13  16
ENDBRANCH   1  10
BRANCH   1  18
ATOM     18  N   UNL     1       2.030   6.005 -10.932  0.00  0.00    -0.224 N 
ATOM     19  N   UNL     1       1.470   6.312 -12.098  0.00  0.00    -0.145 NA
ATOM     20  C   UNL     1       0.751   5.212 -12.419  0.00  0.00    +0.221 A 
ATOM     21  N   UNL     1       0.440   4.593 -11.257  0.00  0.00    -0.201 NA
ATOM     22  C   UNL     1       1.266   5.077 -10.305  0.00  0.00    +0.198 A 
ENDBRANCH   1  18
TORSDOF 5
ENDMDL
MODEL 9
REMARK VINA RESULT:      -6.9      2.412      6.947
REMARK  Name = 
REMARK  5 active torsions:
REMARK  status: ('A' for Active; 'I' for Inactive)
REMARK    1  A    between atoms: C_2  and  C_3
REMARK    2  A    between atoms: C_6  and  C_7
REMARK    3  A    between atoms: C_7  and  C_8
REMARK    4  A    between atoms: C_7  and  N_16
REMARK    5  A    between atoms: C_11  and  C_12
REMARK                            x       y       z     vdW  Elec       q    Type
REMARK                         _______ _______ _______ _____ _____    ______ ____
ROOT
ATOM      1  C   UNL     1       3.816   5.211  -7.223  0.00  0.00    +0.151 C 
ENDROOT
BRANCH   1   5
ATOM      2  C   UNL     1      -0.355   5.244  -6.799  0.00  0.00    +0.068 A 
ATOM      3  C   UNL     1       0.173   5.589  -8.038  0.00  0.00    +0.010 A 
ATOM      4  C   UNL     1       1.542   5.617  -8.232  0.00  0.00    -0.001 A 
ATOM      5  C   UNL     1       2.373   4.961  -7.342  0.00  0.00    +0.004 A 
ATOM      6  C   UNL     1       1.764   4.334  -6.261  0.00  0.00    -0.001 A 
ATOM      7  C   UNL     1       0.445   4.511  -5.935  0.00  0.00    +0.010 A 
BRANCH   2   9
ATOM      8  N   UNL     1      -2.903   5.526  -6.337  0.00  0.00    -0.191 NA
ATOM      9  C   UNL     1      -1.768   5.400  -6.579  0.00  0.00    +0.100 C 
ENDBRANCH   2   9
ENDBRANCH   1   5
BRANCH   1  10
ATOM     10  C   UNL     1       4.464   5.690  -8.444  0.00  0.00    +0.004 A 
ATOM     11  C   UNL     1       3.890   6.536  -9.369  0.00  0.00    -0.001 A 
ATOM     12  C   UNL     1       4.443   6.553 -10.645  0.00  0.00    +0.010 A 
ATOM     13  C   UNL     1       5.594   5.835 -10.951  0.00  0.00    +0.068 A 
ATOM     14  C   UNL     1       6.362   5.457  -9.866  0.00  0.00    +0.010 A 
ATOM     15  C   UNL     1       5.821   5.419  -8.586  0.00  0.00    -0.001 A 
BRANCH  13  16
ATOM     16  C   UNL     1       5.867   5.371 -12.293  0.00  0.00    +0.100 C 
ATOM     17  N   UNL     1       6.504   5.050 -13.218  0.00  0.00    -0.191 NA
ENDBRANCH  13  16
ENDBRANCH   1  10
BRANCH   1  18
ATOM     18  N   UNL     1       4.187   5.959  -6.050  0.00  0.00    -0.224 N 
ATOM     19  N   UNL     1       4.803   5.537  -4.951  0.00  0.00    -0.145 NA
ATOM     20  C   UNL     1       5.156   6.677  -4.313  0.00  0.00    +0.221 A 
ATOM     21  N   UNL     1       4.282   7.632  -4.702  0.00  0.00    -0.201 NA
ATOM     22  C   UNL     1       3.673   7.192  -5.824  0.00  0.00    +0.198 A 
ENDBRANCH   1  18
TORSDOF 5
ENDMDL
