MODEL 1
REMARK VINA RESULT:      -8.0      0.000      0.000
REMARK  Name = 
REMARK  9 active torsions:
REMARK  status: ('A' for Active; 'I' for Inactive)
REMARK    1  A    between atoms: C_2  and  C_11
REMARK    2  A    between atoms: N_3  and  C_4
REMARK    3  A    between atoms: C_4  and  C_5
REMARK    4  A    between atoms: C_13  and  O_14
REMARK    5  A    between atoms: O_14  and  C_15
REMARK    6  A    between atoms: C_15  and  C_16
REMARK    7  A    between atoms: C_22  and  O_23
REMARK    8  A    between atoms: O_23  and  C_24
REMARK    9  A    between atoms: C_24  and  C_25
REMARK                            x       y       z     vdW  Elec       q    Type
REMARK                         _______ _______ _______ _____ _____    ______ ____
ROOT
ATOM      1  C   UNL     1       3.653   5.511  -9.395  0.00  0.00    +0.092 A 
ATOM      2  C   UNL     1       3.192   5.910 -10.637  0.00  0.00    +0.144 A 
ATOM      3  C   UNL     1       3.992   6.704 -11.411  0.00  0.00    +0.040 A 
ATOM      4  C   UNL     1       5.313   6.849 -11.075  0.00  0.00    +0.040 A 
ATOM      5  C   UNL     1       5.868   6.128 -10.052  0.00  0.00    +0.139 A 
ATOM      6  C   UNL     1       5.024   5.428  -9.211  0.00  0.00    +0.045 A 
ENDROOT
BRANCH   1   8
ATOM      7  O   UNL     1       3.254   3.334  -8.867  0.00  0.00    -0.268 OA
ATOM      8  C   UNL     1       2.839   4.480  -8.736  0.00  0.00    +0.268 C 
ATOM      9  N   UNL     1       2.376   4.819  -7.423  0.00  0.00    -0.200 NA
BRANCH   9  10
ATOM     10  C   UNL     1       1.966   3.825  -6.457  0.00  0.00    +0.133 C 
BRANCH  10  11
ATOM     11  C   UNL     1       0.875   4.665  -5.545  0.00  0.00    +0.094 C 
ATOM     12  N   UNL     1       1.659   6.022  -5.762  0.00  0.00    -0.218 NA
ATOM     13  C   UNL     1       0.835   7.047  -5.197  0.00  0.00    +0.089 C 
ATOM     14  C   UNL     1      -0.623   6.820  -5.254  0.00  0.00    +0.019 C 
ATOM     15  C   UNL     1      -1.121   5.857  -6.264  0.00  0.00    +0.003 C 
ATOM     16  C   UNL     1      -0.086   4.953  -6.856  0.00  0.00    +0.019 C 
ENDBRANCH  10  11
ENDBRANCH   9  10
ENDBRANCH   1   8
BRANCH   2  17
ATOM     17  O   UNL     1       2.032   5.369 -11.197  0.00  0.00    -0.466 OA
BRANCH  17  18
ATOM     18  C   UNL     1       1.049   6.266 -11.663  0.00  0.00    +0.308 C 
BRANCH  18  19
ATOM     19  C   UNL     1      -0.020   6.407 -10.605  0.00  0.00    +0.438 C 
ATOM     20  F   UNL     1       0.561   7.095  -9.545  0.00  0.00    -0.166 F 
ATOM     21  F   UNL     1      -0.398   5.166 -10.153  0.00  0.00    -0.166 F 
ATOM     22  F   UNL     1      -1.114   7.113 -11.090  0.00  0.00    -0.166 F 
ENDBRANCH  18  19
ENDBRANCH  17  18
ENDBRANCH   2  17
BRANCH   5  23
ATOM     23  O   UNL     1       7.249   5.982 -10.024  0.00  0.00    -0.467 OA
BRANCH  23  24
ATOM     24  C   UNL     1       8.061   6.757 -10.876  0.00  0.00    +0.308 C 
BRANCH  24  25
ATOM     25  C   UNL     1       8.487   5.887 -12.032  0.00  0.00    +0.438 C 
ATOM     26  F   UNL     1       8.051   4.580 -11.892  0.00  0.00    -0.166 F 
ATOM     27  F   UNL     1       8.033   6.452 -13.199  0.00  0.00    -0.166 F 
ATOM     28  F   UNL     1       9.875   5.817 -12.070  0.00  0.00    -0.166 F 
ENDBRANCH  24  25
ENDBRANCH  23  24
ENDBRANCH   5  23
TORSDOF 9
ENDMDL
MODEL 2
REMARK VINA RESULT:      -7.9      4.213      7.985
REMARK  Name = 
REMARK  9 active torsions:
REMARK  status: ('A' for Active; 'I' for Inactive)
REMARK    1  A    between atoms: C_2  and  C_11
REMARK    2  A    between atoms: N_3  and  C_4
REMARK    3  A    between atoms: C_4  and  C_5
REMARK    4  A    between atoms: C_13  and  O_14
REMARK    5  A    between atoms: O_14  and  C_15
REMARK    6  A    between atoms: C_15  and  C_16
REMARK    7  A    between atoms: C_22  and  O_23
REMARK    8  A    between atoms: O_23  and  C_24
REMARK    9  A    between atoms: C_24  and  C_25
REMARK                            x       y       z     vdW  Elec       q    Type
REMARK                         _______ _______ _______ _____ _____    ______ ____
ROOT
ATOM      1  C   UNL     1       0.802   6.104  -6.083  0.00  0.00    +0.092 A 
ATOM      2  C   UNL     1       0.212   5.508  -7.184  0.00  0.00    +0.144 A 
ATOM      3  C   UNL     1      -1.120   5.200  -7.130  0.00  0.00    +0.040 A 
ATOM      4  C   UNL     1      -1.887   5.733  -6.127  0.00  0.00    +0.040 A 
ATOM      5  C   UNL     1      -1.373   6.652  -5.252  0.00  0.00    +0.139 A 
ATOM      6  C   UNL     1      -0.006   6.857  -5.246  0.00  0.00    +0.045 A 
ENDROOT
BRANCH   1   8
ATOM      7  O   UNL     1       2.222   7.720  -6.824  0.00  0.00    -0.268 OA
ATOM      8  C   UNL     1       2.163   6.608  -6.310  0.00  0.00    +0.268 C 
ATOM      9  N   UNL     1       3.082   6.380  -5.235  0.00  0.00    -0.200 NA
BRANCH   9  10
ATOM     10  C   UNL     1       4.290   7.155  -5.059  0.00  0.00    +0.133 C 
BRANCH  10  11
ATOM     11  C   UNL     1       4.642   6.882  -3.469  0.00  0.00    +0.094 C 
ATOM     12  N   UNL     1       3.260   7.495  -3.003  0.00  0.00    -0.218 NA
ATOM     13  C   UNL     1       3.175   7.249  -1.596  0.00  0.00    +0.089 C 
ATOM     14  C   UNL     1       3.838   6.024  -1.105  0.00  0.00    +0.019 C 
ATOM     15  C   UNL     1       4.099   4.951  -2.092  0.00  0.00    +0.003 C 
ATOM     16  C   UNL     1       4.004   5.361  -3.529  0.00  0.00    +0.019 C 
ENDBRANCH  10  11
ENDBRANCH   9  10
ENDBRANCH   1   8
BRANCH   2  17
ATOM     17  O   UNL     1       0.883   5.394  -8.404  0.00  0.00    -0.466 OA
BRANCH  17  18
ATOM     18  C   UNL     1       0.105   5.216  -9.566  0.00  0.00    +0.308 C 
BRANCH  18  19
ATOM     19  C   UNL     1       0.355   6.378 -10.499  0.00  0.00    +0.438 C 
ATOM     20  F   UNL     1       1.110   7.303  -9.786  0.00  0.00    -0.166 F 
ATOM     21  F   UNL     1      -0.836   6.968 -10.842  0.00  0.00    -0.166 F 
ATOM     22  F   UNL     1       1.050   5.969 -11.631  0.00  0.00    -0.166 F 
ENDBRANCH  18  19
ENDBRANCH  17  18
ENDBRANCH   2  17
BRANCH   5  23
ATOM     23  O   UNL     1      -2.258   7.462  -4.554  0.00  0.00    -0.467 OA
BRANCH  23  24
ATOM     24  C   UNL     1      -2.074   7.689  -3.175  0.00  0.00    +0.308 C 
BRANCH  24  25
ATOM     25  C   UNL     1      -2.860   6.645  -2.422  0.00  0.00    +0.438 C 
ATOM     26  F   UNL     1      -4.139   6.487  -2.928  0.00  0.00    -0.166 F 
ATOM     27  F   UNL     1      -2.157   5.465  -2.440  0.00  0.00    -0.166 F 
ATOM     28  F   UNL     1      -3.027   7.055  -1.104  0.00  0.00    -0.166 F 
ENDBRANCH  24  25
ENDBRANCH  23  24
ENDBRANCH   5  23
TORSDOF 9
ENDMDL
MODEL 3
REMARK VINA RESULT:      -7.8      4.503      9.197
REMARK  Name = 
REMARK  9 active torsions:
REMARK  status: ('A' for Active; 'I' for Inactive)
REMARK    1  A    between atoms: C_2  and  C_11
REMARK    2  A    between atoms: N_3  and  C_4
REMARK    3  A    between atoms: C_4  and  C_5
REMARK    4  A    between atoms: C_13  and  O_14
REMARK    5  A    between atoms: O_14  and  C_15
REMARK    6  A    between atoms: C_15  and  C_16
REMARK    7  A    between atoms: C_22  and  O_23
REMARK    8  A    between atoms: O_23  and  C_24
REMARK    9  A    between atoms: C_24  and  C_25
REMARK                            x       y       z     vdW  Elec       q    Type
REMARK                         _______ _______ _______ _____ _____    ______ ____
ROOT
ATOM      1  C   UNL     1       1.383   5.485  -4.470  0.00  0.00    +0.092 A 
ATOM      2  C   UNL     1       2.370   5.710  -3.527  0.00  0.00    +0.144 A 
ATOM      3  C   UNL     1       2.001   6.116  -2.274  0.00  0.00    +0.040 A 
ATOM      4  C   UNL     1       0.686   6.018  -1.901  0.00  0.00    +0.040 A 
ATOM      5  C   UNL     1      -0.239   5.418  -2.714  0.00  0.00    +0.139 A 
ATOM      6  C   UNL     1       0.125   5.126  -4.015  0.00  0.00    +0.045 A 
ENDROOT
BRANCH   1   8
ATOM      7  O   UNL     1       1.223   3.825  -6.018  0.00  0.00    -0.268 OA
ATOM      8  C   UNL     1       1.846   4.834  -5.703  0.00  0.00    +0.268 C 
ATOM      9  N   UNL     1       2.156   5.725  -6.781  0.00  0.00    -0.200 NA
BRANCH   9  10
ATOM     10  C   UNL     1       2.188   5.301  -8.163  0.00  0.00    +0.133 C 
BRANCH  10  11
ATOM     11  C   UNL     1       3.504   6.115  -8.740  0.00  0.00    +0.094 C 
ATOM     12  N   UNL     1       4.492   4.997  -8.215  0.00  0.00    -0.218 NA
ATOM     13  C   UNL     1       5.784   5.341  -8.727  0.00  0.00    +0.089 C 
ATOM     14  C   UNL     1       5.807   6.036 -10.029  0.00  0.00    +0.019 C 
ATOM     15  C   UNL     1       4.613   5.897 -10.895  0.00  0.00    +0.003 C 
ATOM     16  C   UNL     1       3.381   5.386 -10.215  0.00  0.00    +0.019 C 
ENDBRANCH  10  11
ENDBRANCH   9  10
ENDBRANCH   1   8
BRANCH   2  17
ATOM     17  O   UNL     1       3.700   5.349  -3.756  0.00  0.00    -0.466 OA
BRANCH  17  18
ATOM     18  C   UNL     1       4.705   6.131  -3.150  0.00  0.00    +0.308 C 
BRANCH  18  19
ATOM     19  C   UNL     1       5.233   7.115  -4.168  0.00  0.00    +0.438 C 
ATOM     20  F   UNL     1       5.028   6.540  -5.417  0.00  0.00    -0.166 F 
ATOM     21  F   UNL     1       6.584   7.290  -3.993  0.00  0.00    -0.166 F 
ATOM     22  F   UNL     1       4.561   8.328  -4.085  0.00  0.00    -0.166 F 
ENDBRANCH  18  19
ENDBRANCH  17  18
ENDBRANCH   2  17
BRANCH   5  23
ATOM     23  O   UNL     1      -1.421   4.965  -2.143  0.00  0.00    -0.467 OA
BRANCH  23  24
ATOM     24  C   UNL     1      -2.389   5.884  -1.694  0.00  0.00    +0.308 C 
BRANCH  24  25
ATOM     25  C   UNL     1      -3.311   6.191  -2.846  0.00  0.00    +0.438 C 
ATOM     26  F   UNL     1      -2.805   7.181  -3.672  0.00  0.00    -0.166 F 
ATOM     27  F   UNL     1      -3.556   5.029  -3.536  0.00  0.00    -0.166 F 
ATOM     28  F   UNL     1      -4.513   6.690  -2.357  0.00  0.00    -0.166 F 
ENDBRANCH  24  25
ENDBRANCH  23  24
ENDBRANCH   5  23
TORSDOF 9
ENDMDL
MODEL 4
REMARK VINA RESULT:      -7.8      1.756      2.254
REMARK  Name = 
REMARK  9 active torsions:
REMARK  status: ('A' for Active; 'I' for Inactive)
REMARK    1  A    between atoms: C_2  and  C_11
REMARK    2  A    between atoms: N_3  and  C_4
REMARK    3  A    between atoms: C_4  and  C_5
REMARK    4  A    between atoms: C_13  and  O_14
REMARK    5  A    between atoms: O_14  and  C_15
REMARK    6  A    between atoms: C_15  and  C_16
REMARK    7  A    between atoms: C_22  and  O_23
REMARK    8  A    between atoms: O_23  and  C_24
REMARK    9  A    between atoms: C_24  and  C_25
REMARK                            x       y       z     vdW  Elec       q    Type
REMARK                         _______ _______ _______ _____ _____    ______ ____
ROOT
ATOM      1  C   UNL     1       2.656   5.738  -7.792  0.00  0.00    +0.092 A 
ATOM      2  C   UNL     1       1.970   6.219  -8.893  0.00  0.00    +0.144 A 
ATOM      3  C   UNL     1       2.672   6.854  -9.880  0.00  0.00    +0.040 A 
ATOM      4  C   UNL     1       4.038   6.753  -9.897  0.00  0.00    +0.040 A 
ATOM      5  C   UNL     1       4.700   5.938  -9.018  0.00  0.00    +0.139 A 
ATOM      6  C   UNL     1       3.990   5.403  -7.959  0.00  0.00    +0.045 A 
ENDROOT
BRANCH   1   8
ATOM      7  O   UNL     1       2.438   3.848  -6.544  0.00  0.00    -0.268 OA
ATOM      8  C   UNL     1       1.869   4.873  -6.903  0.00  0.00    +0.268 C 
ATOM      9  N   UNL     1       1.136   5.559  -5.881  0.00  0.00    -0.200 NA
BRANCH   9  10
ATOM     10  C   UNL     1       0.682   4.909  -4.672  0.00  0.00    +0.133 C 
BRANCH  10  11
ATOM     11  C   UNL     1      -0.797   5.607  -4.444  0.00  0.00    +0.094 C 
ATOM     12  N   UNL     1      -0.215   7.053  -4.716  0.00  0.00    -0.218 NA
ATOM     13  C   UNL     1      -1.345   7.931  -4.754  0.00  0.00    +0.089 C 
ATOM     14  C   UNL     1      -2.607   7.349  -5.253  0.00  0.00    +0.019 C 
ATOM     15  C   UNL     1      -2.511   6.131  -6.090  0.00  0.00    +0.003 C 
ATOM     16  C   UNL     1      -1.198   5.414  -6.034  0.00  0.00    +0.019 C 
ENDBRANCH  10  11
ENDBRANCH   9  10
ENDBRANCH   1   8
BRANCH   2  17
ATOM     17  O   UNL     1       0.627   5.903  -9.116  0.00  0.00    -0.466 OA
BRANCH  17  18
ATOM     18  C   UNL     1       0.125   6.058 -10.424  0.00  0.00    +0.308 C 
BRANCH  18  19
ATOM     19  C   UNL     1       0.261   4.743 -11.155  0.00  0.00    +0.438 C 
ATOM     20  F   UNL     1       1.185   4.951 -12.173  0.00  0.00    -0.166 F 
ATOM     21  F   UNL     1      -0.938   4.399 -11.728  0.00  0.00    -0.166 F 
ATOM     22  F   UNL     1       0.709   3.741 -10.302  0.00  0.00    -0.166 F 
ENDBRANCH  18  19
ENDBRANCH  17  18
ENDBRANCH   2  17
BRANCH   5  23
ATOM     23  O   UNL     1       5.992   5.540  -9.335  0.00  0.00    -0.467 OA
BRANCH  23  24
ATOM     24  C   UNL     1       6.477   5.689 -10.650  0.00  0.00    +0.308 C 
BRANCH  24  25
ATOM     25  C   UNL     1       7.561   6.736 -10.631  0.00  0.00    +0.438 C 
ATOM     26  F   UNL     1       8.651   6.376 -11.406  0.00  0.00    -0.166 F 
ATOM     27  F   UNL     1       7.024   7.934 -11.034  0.00  0.00    -0.166 F 
ATOM     28  F   UNL     1       8.051   6.871  -9.336  0.00  0.00    -0.166 F 
ENDBRANCH  24  25
ENDBRANCH  23  24
ENDBRANCH   5  23
TORSDOF 9
ENDMDL
MODEL 5
REMARK VINA RESULT:      -7.8      1.533      2.267
REMARK  Name = 
REMARK  9 active torsions:
REMARK  status: ('A' for Active; 'I' for Inactive)
REMARK    1  A    between atoms: C_2  and  C_11
REMARK    2  A    between atoms: N_3  and  C_4
REMARK    3  A    between atoms: C_4  and  C_5
REMARK    4  A    between atoms: C_13  and  O_14
REMARK    5  A    between atoms: O_14  and  C_15
REMARK    6  A    between atoms: C_15  and  C_16
REMARK    7  A    between atoms: C_22  and  O_23
REMARK    8  A    between atoms: O_23  and  C_24
REMARK    9  A    between atoms: C_24  and  C_25
REMARK                            x       y       z     vdW  Elec       q    Type
REMARK                         _______ _______ _______ _____ _____    ______ ____
ROOT
ATOM      1  C   UNL     1       3.483   5.566  -9.461  0.00  0.00    +0.092 A 
ATOM      2  C   UNL     1       3.012   5.704 -10.755  0.00  0.00    +0.144 A 
ATOM      3  C   UNL     1       3.823   6.283 -11.692  0.00  0.00    +0.040 A 
ATOM      4  C   UNL     1       5.154   6.450 -11.409  0.00  0.00    +0.040 A 
ATOM      5  C   UNL     1       5.704   5.947 -10.261  0.00  0.00    +0.139 A 
ATOM      6  C   UNL     1       4.853   5.476  -9.279  0.00  0.00    +0.045 A 
ENDROOT
BRANCH   1   8
ATOM      7  O   UNL     1       2.918   3.535  -8.604  0.00  0.00    -0.268 OA
ATOM      8  C   UNL     1       2.648   4.731  -8.587  0.00  0.00    +0.268 C 
ATOM      9  N   UNL     1       2.385   5.283  -7.291  0.00  0.00    -0.200 NA
BRANCH   9  10
ATOM     10  C   UNL     1       1.990   4.473  -6.160  0.00  0.00    +0.133 C 
BRANCH  10  11
ATOM     11  C   UNL     1       2.609   5.331  -4.892  0.00  0.00    +0.094 C 
ATOM     12  N   UNL     1       3.923   4.450  -4.869  0.00  0.00    -0.218 NA
ATOM     13  C   UNL     1       4.799   5.074  -3.926  0.00  0.00    +0.089 C 
ATOM     14  C   UNL     1       4.686   6.541  -3.800  0.00  0.00    +0.019 C 
ATOM     15  C   UNL     1       4.073   7.274  -4.932  0.00  0.00    +0.003 C 
ATOM     16  C   UNL     1       3.306   6.433  -5.904  0.00  0.00    +0.019 C 
ENDBRANCH  10  11
ENDBRANCH   9  10
ENDBRANCH   1   8
BRANCH   2  17
ATOM     17  O   UNL     1       1.825   5.097 -11.172  0.00  0.00    -0.466 OA
BRANCH  17  18
ATOM     18  C   UNL     1       0.808   5.929 -11.684  0.00  0.00    +0.308 C 
BRANCH  18  19
ATOM     19  C   UNL     1      -0.036   6.426 -10.534  0.00  0.00    +0.438 C 
ATOM     20  F   UNL     1      -1.161   7.019 -11.097  0.00  0.00    -0.166 F 
ATOM     21  F   UNL     1       0.649   7.388  -9.832  0.00  0.00    -0.166 F 
ATOM     22  F   UNL     1      -0.414   5.380  -9.702  0.00  0.00    -0.166 F 
ENDBRANCH  18  19
ENDBRANCH  17  18
ENDBRANCH   2  17
BRANCH   5  23
ATOM     23  O   UNL     1       7.080   5.761 -10.217  0.00  0.00    -0.467 OA
BRANCH  23  24
ATOM     24  C   UNL     1       7.934   6.622 -10.934  0.00  0.00    +0.308 C 
BRANCH  24  25
ATOM     25  C   UNL     1       8.494   5.855 -12.105  0.00  0.00    +0.438 C 
ATOM     26  F   UNL     1       9.877   5.919 -12.159  0.00  0.00    -0.166 F 
ATOM     27  F   UNL     1       8.047   4.558 -12.037  0.00  0.00    -0.166 F 
ATOM     28  F   UNL     1       8.046   6.429 -13.290  0.00  0.00    -0.166 F 
ENDBRANCH  24  25
ENDBRANCH  23  24
ENDBRANCH   5  23
TORSDOF 9
ENDMDL
MODEL 6
REMARK VINA RESULT:      -7.7      2.974      7.647
REMARK  Name = 
REMARK  9 active torsions:
REMARK  status: ('A' for Active; 'I' for Inactive)
REMARK    1  A    between atoms: C_2  and  C_11
REMARK    2  A    between atoms: N_3  and  C_4
REMARK    3  A    between atoms: C_4  and  C_5
REMARK    4  A    between atoms: C_13  and  O_14
REMARK    5  A    between atoms: O_14  and  C_15
REMARK    6  A    between atoms: C_15  and  C_16
REMARK    7  A    between atoms: C_22  and  O_23
REMARK    8  A    between atoms: O_23  and  C_24
REMARK    9  A    between atoms: C_24  and  C_25
REMARK                            x       y       z     vdW  Elec       q    Type
REMARK                         _______ _______ _______ _____ _____    ______ ____
ROOT
ATOM      1  C   UNL     1       1.739   5.547  -7.597  0.00  0.00    +0.092 A 
ATOM      2  C   UNL     1       0.848   5.854  -8.610  0.00  0.00    +0.144 A 
ATOM      3  C   UNL     1      -0.479   5.575  -8.425  0.00  0.00    +0.040 A 
ATOM      4  C   UNL     1      -0.927   5.273  -7.166  0.00  0.00    +0.040 A 
ATOM      5  C   UNL     1      -0.100   5.356  -6.079  0.00  0.00    +0.139 A 
ATOM      6  C   UNL     1       1.256   5.519  -6.299  0.00  0.00    +0.045 A 
ENDROOT
BRANCH   1   8
ATOM      7  O   UNL     1       3.589   6.590  -6.778  0.00  0.00    -0.268 OA
ATOM      8  C   UNL     1       3.093   6.088  -7.781  0.00  0.00    +0.268 C 
ATOM      9  N   UNL     1       3.974   5.266  -8.556  0.00  0.00    -0.200 NA
BRANCH   9  10
ATOM     10  C   UNL     1       5.414   5.376  -8.483  0.00  0.00    +0.133 C 
BRANCH  10  11
ATOM     11  C   UNL     1       5.828   5.505 -10.076  0.00  0.00    +0.094 C 
ATOM     12  N   UNL     1       5.389   7.025 -10.121  0.00  0.00    -0.218 NA
ATOM     13  C   UNL     1       5.794   7.513 -11.404  0.00  0.00    +0.089 C 
ATOM     14  C   UNL     1       7.005   6.899 -11.984  0.00  0.00    +0.019 C 
ATOM     15  C   UNL     1       7.938   6.224 -11.053  0.00  0.00    +0.003 C 
ATOM     16  C   UNL     1       7.382   5.914  -9.698  0.00  0.00    +0.019 C 
ENDBRANCH  10  11
ENDBRANCH   9  10
ENDBRANCH   1   8
BRANCH   2  17
ATOM     17  O   UNL     1       1.231   6.610  -9.720  0.00  0.00    -0.466 OA
BRANCH  17  18
ATOM     18  C   UNL     1       0.391   6.586 -10.852  0.00  0.00    +0.308 C 
BRANCH  18  19
ATOM     19  C   UNL     1       0.907   5.545 -11.818  0.00  0.00    +0.438 C 
ATOM     20  F   UNL     1       0.629   6.019 -13.095  0.00  0.00    -0.166 F 
ATOM     21  F   UNL     1       0.228   4.365 -11.641  0.00  0.00    -0.166 F 
ATOM     22  F   UNL     1       2.275   5.357 -11.666  0.00  0.00    -0.166 F 
ENDBRANCH  18  19
ENDBRANCH  17  18
ENDBRANCH   2  17
BRANCH   5  23
ATOM     23  O   UNL     1      -0.675   5.462  -4.820  0.00  0.00    -0.467 OA
BRANCH  23  24
ATOM     24  C   UNL     1      -2.031   5.826  -4.689  0.00  0.00    +0.308 C 
BRANCH  24  25
ATOM     25  C   UNL     1      -2.100   7.326  -4.557  0.00  0.00    +0.438 C 
ATOM     26  F   UNL     1      -0.858   7.923  -4.703  0.00  0.00    -0.166 F 
ATOM     27  F   UNL     1      -3.006   7.808  -5.470  0.00  0.00    -0.166 F 
ATOM     28  F   UNL     1      -2.526   7.659  -3.276  0.00  0.00    -0.166 F 
ENDBRANCH  24  25
ENDBRANCH  23  24
ENDBRANCH   5  23
TORSDOF 9
ENDMDL
MODEL 7
REMARK VINA RESULT:      -7.6      3.004      3.984
REMARK  Name = 
REMARK  9 active torsions:
REMARK  status: ('A' for Active; 'I' for Inactive)
REMARK    1  A    between atoms: C_2  and  C_11
REMARK    2  A    between atoms: N_3  and  C_4
REMARK    3  A    between atoms: C_4  and  C_5
REMARK    4  A    between atoms: C_13  and  O_14
REMARK    5  A    between atoms: O_14  and  C_15
REMARK    6  A    between atoms: C_15  and  C_16
REMARK    7  A    between atoms: C_22  and  O_23
REMARK    8  A    between atoms: O_23  and  C_24
REMARK    9  A    between atoms: C_24  and  C_25
REMARK                            x       y       z     vdW  Elec       q    Type
REMARK                         _______ _______ _______ _____ _____    ______ ____
ROOT
ATOM      1  C   UNL     1       3.387   5.862  -8.791  0.00  0.00    +0.092 A 
ATOM      2  C   UNL     1       4.227   5.439  -7.776  0.00  0.00    +0.144 A 
ATOM      3  C   UNL     1       5.528   5.142  -8.080  0.00  0.00    +0.040 A 
ATOM      4  C   UNL     1       6.035   5.534  -9.291  0.00  0.00    +0.040 A 
ATOM      5  C   UNL     1       5.304   6.310 -10.150  0.00  0.00    +0.139 A 
ATOM      6  C   UNL     1       3.960   6.495  -9.882  0.00  0.00    +0.045 A 
ENDROOT
BRANCH   1   8
ATOM      7  O   UNL     1       1.604   7.250  -9.054  0.00  0.00    -0.268 OA
ATOM      8  C   UNL     1       2.087   6.377  -8.341  0.00  0.00    +0.268 C 
ATOM      9  N   UNL     1       1.166   5.382  -7.880  0.00  0.00    -0.200 NA
BRANCH   9  10
ATOM     10  C   UNL     1      -0.262   5.601  -7.825  0.00  0.00    +0.133 C 
BRANCH  10  11
ATOM     11  C   UNL     1      -0.604   5.232  -6.252  0.00  0.00    +0.094 C 
ATOM     12  N   UNL     1      -0.176   6.674  -5.765  0.00  0.00    -0.218 NA
ATOM     13  C   UNL     1      -0.526   6.741  -4.379  0.00  0.00    +0.089 C 
ATOM     14  C   UNL     1      -1.704   5.954  -3.963  0.00  0.00    +0.019 C 
ATOM     15  C   UNL     1      -2.673   5.574  -5.017  0.00  0.00    +0.003 C 
ATOM     16  C   UNL     1      -2.177   5.702  -6.424  0.00  0.00    +0.019 C 
ENDBRANCH  10  11
ENDBRANCH   9  10
ENDBRANCH   1   8
BRANCH   2  17
ATOM     17  O   UNL     1       3.843   5.495  -6.434  0.00  0.00    -0.466 OA
BRANCH  17  18
ATOM     18  C   UNL     1       4.625   6.276  -5.560  0.00  0.00    +0.308 C 
BRANCH  18  19
ATOM     19  C   UNL     1       4.626   5.625  -4.197  0.00  0.00    +0.438 C 
ATOM     20  F   UNL     1       5.184   6.548  -3.319  0.00  0.00    -0.166 F 
ATOM     21  F   UNL     1       5.426   4.509  -4.211  0.00  0.00    -0.166 F 
ATOM     22  F   UNL     1       3.335   5.305  -3.795  0.00  0.00    -0.166 F 
ENDBRANCH  18  19
ENDBRANCH  17  18
ENDBRANCH   2  17
BRANCH   5  23
ATOM     23  O   UNL     1       5.980   7.021 -11.132  0.00  0.00    -0.467 OA
BRANCH  23  24
ATOM     24  C   UNL     1       7.387   6.979 -11.196  0.00  0.00    +0.308 C 
BRANCH  24  25
ATOM     25  C   UNL     1       7.775   6.202 -12.427  0.00  0.00    +0.438 C 
ATOM     26  F   UNL     1       7.389   4.874 -12.352  0.00  0.00    -0.166 F 
ATOM     27  F   UNL     1       7.242   6.825 -13.529  0.00  0.00    -0.166 F 
ATOM     28  F   UNL     1       9.161   6.182 -12.544  0.00  0.00    -0.166 F 
ENDBRANCH  24  25
ENDBRANCH  23  24
ENDBRANCH   5  23
TORSDOF 9
ENDMDL
MODEL 8
REMARK VINA RESULT:      -7.5      4.311      9.043
REMARK  Name = 
REMARK  9 active torsions:
REMARK  status: ('A' for Active; 'I' for Inactive)
REMARK    1  A    between atoms: C_2  and  C_11
REMARK    2  A    between atoms: N_3  and  C_4
REMARK    3  A    between atoms: C_4  and  C_5
REMARK    4  A    between atoms: C_13  and  O_14
REMARK    5  A    between atoms: O_14  and  C_15
REMARK    6  A    between atoms: C_15  and  C_16
REMARK    7  A    between atoms: C_22  and  O_23
REMARK    8  A    between atoms: O_23  and  C_24
REMARK    9  A    between atoms: C_24  and  C_25
REMARK                            x       y       z     vdW  Elec       q    Type
REMARK                         _______ _______ _______ _____ _____    ______ ____
ROOT
ATOM      1  C   UNL     1       1.805   5.440  -5.373  0.00  0.00    +0.092 A 
ATOM      2  C   UNL     1       2.450   5.658  -4.168  0.00  0.00    +0.144 A 
ATOM      3  C   UNL     1       1.729   6.156  -3.117  0.00  0.00    +0.040 A 
ATOM      4  C   UNL     1       0.361   6.158  -3.189  0.00  0.00    +0.040 A 
ATOM      5  C   UNL     1      -0.296   5.571  -4.237  0.00  0.00    +0.139 A 
ATOM      6  C   UNL     1       0.444   5.185  -5.339  0.00  0.00    +0.045 A 
ENDROOT
BRANCH   1   8
ATOM      7  O   UNL     1       2.123   3.602  -6.676  0.00  0.00    -0.268 OA
ATOM      8  C   UNL     1       2.589   4.694  -6.366  0.00  0.00    +0.268 C 
ATOM      9  N   UNL     1       3.094   5.477  -7.454  0.00  0.00    -0.200 NA
BRANCH   9  10
ATOM     10  C   UNL     1       3.482   4.898  -8.721  0.00  0.00    +0.133 C 
BRANCH  10  11
ATOM     11  C   UNL     1       4.563   6.011  -9.288  0.00  0.00    +0.094 C 
ATOM     12  N   UNL     1       5.793   5.116  -8.852  0.00  0.00    -0.218 NA
ATOM     13  C   UNL     1       6.956   5.763  -9.379  0.00  0.00    +0.089 C 
ATOM     14  C   UNL     1       6.775   6.507 -10.641  0.00  0.00    +0.019 C 
ATOM     15  C   UNL     1       5.608   6.147 -11.481  0.00  0.00    +0.003 C 
ATOM     16  C   UNL     1       4.547   5.343 -10.797  0.00  0.00    +0.019 C 
ENDBRANCH  10  11
ENDBRANCH   9  10
ENDBRANCH   1   8
BRANCH   2  17
ATOM     17  O   UNL     1       3.751   5.205  -3.940  0.00  0.00    -0.466 OA
BRANCH  17  18
ATOM     18  C   UNL     1       4.633   6.062  -3.251  0.00  0.00    +0.308 C 
BRANCH  18  19
ATOM     19  C   UNL     1       5.208   7.058  -4.232  0.00  0.00    +0.438 C 
ATOM     20  F   UNL     1       6.496   7.344  -3.794  0.00  0.00    -0.166 F 
ATOM     21  F   UNL     1       4.477   8.220  -4.202  0.00  0.00    -0.166 F 
ATOM     22  F   UNL     1       5.247   6.529  -5.516  0.00  0.00    -0.166 F 
ENDBRANCH  18  19
ENDBRANCH  17  18
ENDBRANCH   2  17
BRANCH   5  23
ATOM     23  O   UNL     1      -1.629   5.222  -4.066  0.00  0.00    -0.467 OA
BRANCH  23  24
ATOM     24  C   UNL     1      -2.264   5.436  -2.826  0.00  0.00    +0.308 C 
BRANCH  24  25
ATOM     25  C   UNL     1      -3.034   6.729  -2.914  0.00  0.00    +0.438 C 
ATOM     26  F   UNL     1      -4.361   6.574  -2.547  0.00  0.00    -0.166 F 
ATOM     27  F   UNL     1      -2.401   7.673  -2.143  0.00  0.00    -0.166 F 
ATOM     28  F   UNL     1      -3.059   7.163  -4.235  0.00  0.00    -0.166 F 
ENDBRANCH  24  25
ENDBRANCH  23  24
ENDBRANCH   5  23
TORSDOF 9
ENDMDL
MODEL 9
REMARK VINA RESULT:      -7.5      3.702      5.064
REMARK  Name = 
REMARK  9 active torsions:
REMARK  status: ('A' for Active; 'I' for Inactive)
REMARK    1  A    between atoms: C_2  and  C_11
REMARK    2  A    between atoms: N_3  and  C_4
REMARK    3  A    between atoms: C_4  and  C_5
REMARK    4  A    between atoms: C_13  and  O_14
REMARK    5  A    between atoms: O_14  and  C_15
REMARK    6  A    between atoms: C_15  and  C_16
REMARK    7  A    between atoms: C_22  and  O_23
REMARK    8  A    between atoms: O_23  and  C_24
REMARK    9  A    between atoms: C_24  and  C_25
REMARK                            x       y       z     vdW  Elec       q    Type
REMARK                         _______ _______ _______ _____ _____    ______ ____
ROOT
ATOM      1  C   UNL     1       1.982   5.424  -6.910  0.00  0.00    +0.092 A 
ATOM      2  C   UNL     1       2.585   5.204  -8.136  0.00  0.00    +0.144 A 
ATOM      3  C   UNL     1       3.918   5.479  -8.272  0.00  0.00    +0.040 A 
ATOM      4  C   UNL     1       4.674   5.687  -7.148  0.00  0.00    +0.040 A 
ATOM      5  C   UNL     1       4.147   5.513  -5.897  0.00  0.00    +0.139 A 
ATOM      6  C   UNL     1       2.778   5.356  -5.778  0.00  0.00    +0.045 A 
ENDROOT
BRANCH   1   8
ATOM      7  O   UNL     1       0.523   3.878  -6.099  0.00  0.00    -0.268 OA
ATOM      8  C   UNL     1       0.620   4.888  -6.788  0.00  0.00    +0.268 C 
ATOM      9  N   UNL     1      -0.403   5.870  -6.584  0.00  0.00    -0.200 NA
BRANCH   9  10
ATOM     10  C   UNL     1      -1.690   5.552  -6.007  0.00  0.00    +0.133 C 
BRANCH  10  11
ATOM     11  C   UNL     1      -1.457   5.935  -4.418  0.00  0.00    +0.094 C 
ATOM     12  N   UNL     1      -1.986   7.409  -4.641  0.00  0.00    -0.218 NA
ATOM     13  C   UNL     1      -2.069   7.998  -3.339  0.00  0.00    +0.089 C 
ATOM     14  C   UNL     1      -2.378   7.079  -2.225  0.00  0.00    +0.019 C 
ATOM     15  C   UNL     1      -3.028   5.792  -2.565  0.00  0.00    +0.003 C 
ATOM     16  C   UNL     1      -2.965   5.401  -4.009  0.00  0.00    +0.019 C 
ENDBRANCH  10  11
ENDBRANCH   9  10
ENDBRANCH   1   8
BRANCH   2  17
ATOM     17  O   UNL     1       1.925   4.533  -9.169  0.00  0.00    -0.466 OA
BRANCH  17  18
ATOM     18  C   UNL     1       1.730   5.225 -10.381  0.00  0.00    +0.308 C 
BRANCH  18  19
ATOM     19  C   UNL     1       0.249   5.273 -10.680  0.00  0.00    +0.438 C 
ATOM     20  F   UNL     1      -0.303   6.194  -9.796  0.00  0.00    -0.166 F 
ATOM     21  F   UNL     1      -0.318   4.047 -10.432  0.00  0.00    -0.166 F 
ATOM     22  F   UNL     1       0.016   5.671 -11.990  0.00  0.00    -0.166 F 
ENDBRANCH  18  19
ENDBRANCH  17  18
ENDBRANCH   2  17
BRANCH   5  23
ATOM     23  O   UNL     1       5.021   5.314  -4.836  0.00  0.00    -0.467 OA
BRANCH  23  24
ATOM     24  C   UNL     1       4.681   5.763  -3.544  0.00  0.00    +0.308 C 
BRANCH  24  25
ATOM     25  C   UNL     1       5.111   7.203  -3.423  0.00  0.00    +0.438 C 
ATOM     26  F   UNL     1       4.189   8.074  -3.978  0.00  0.00    -0.166 F 
ATOM     27  F   UNL     1       5.342   7.484  -2.098  0.00  0.00    -0.166 F 
ATOM     28  F   UNL     1       6.287   7.396  -4.140  0.00  0.00    -0.166 F 
ENDBRANCH  24  25
ENDBRANCH  23  24
ENDBRANCH   5  23
TORSDOF 9
ENDMDL
