MODEL 1
REMARK VINA RESULT:      -6.8      0.000      0.000
REMARK  Name = 
REMARK  3 active torsions:
REMARK  status: ('A' for Active; 'I' for Inactive)
REMARK    1  A    between atoms: C_5  and  N_6
REMARK    2  A    between atoms: C_9  and  S_10
REMARK    3  A    between atoms: S_10  and  C_11
REMARK                            x       y       z     vdW  Elec       q    Type
REMARK                         _______ _______ _______ _____ _____    ______ ____
ROOT
ATOM      1  S   UNL     1       4.805   6.829 -10.924  0.00  0.00    -0.041 S 
ENDROOT
BRANCH   1   2
ATOM      2  C   UNL     1       3.668   5.565 -10.345  0.00  0.00    +0.135 A 
ATOM      3  C   UNL     1       2.329   5.566 -10.705  0.00  0.00    +0.143 A 
ATOM      4  C   UNL     1       1.384   5.220  -9.747  0.00  0.00    +0.185 A 
ATOM      5  N   UNL     1       0.182   5.544 -10.253  0.00  0.00    -0.203 NA
ATOM      6  C   UNL     1       0.388   5.923 -11.536  0.00  0.00    +0.200 A 
ATOM      7  N   UNL     1       1.834   4.406  -8.760  0.00  0.00    -0.203 NA
ATOM      8  C   UNL     1       3.128   4.007  -8.725  0.00  0.00    +0.201 A 
ATOM      9  N   UNL     1       1.710   6.120 -11.753  0.00  0.00    -0.219 NA
ATOM     10  N   UNL     1       4.082   4.617  -9.469  0.00  0.00    -0.216 NA
ENDBRANCH   1   2
BRANCH   1  13
ATOM     11  C   UNL     1       7.710   6.285  -9.501  0.00  0.00    +0.133 C 
ATOM     12  N   UNL     1       7.449   5.864 -10.873  0.00  0.00    -0.297 N 
ATOM     13  C   UNL     1       6.285   6.048 -11.519  0.00  0.00    +0.184 A 
ATOM     14  C   UNL     1       6.337   5.295 -12.679  0.00  0.00    +0.400 A 
ATOM     15  N   UNL     1       7.596   4.846 -12.751  0.00  0.00    -0.158 NA
ATOM     16  C   UNL     1       8.327   5.262 -11.706  0.00  0.00    +0.185 A 
BRANCH  14  17
ATOM     17  N   UNL     1       5.381   5.369 -13.744  0.00  0.00    +0.103 N 
ATOM     18  O   UNL     1       4.319   4.484 -13.697  0.00  0.00    -0.575 OA
ATOM     19  O   UNL     1       5.262   6.339 -14.498  0.00  0.00    +0.043 OA
ENDBRANCH  14  17
ENDBRANCH   1  13
TORSDOF 3
ENDMDL
MODEL 2
REMARK VINA RESULT:      -6.6      5.938      7.644
REMARK  Name = 
REMARK  3 active torsions:
REMARK  status: ('A' for Active; 'I' for Inactive)
REMARK    1  A    between atoms: C_5  and  N_6
REMARK    2  A    between atoms: C_9  and  S_10
REMARK    3  A    between atoms: S_10  and  C_11
REMARK                            x       y       z     vdW  Elec       q    Type
REMARK                         _______ _______ _______ _____ _____    ______ ____
ROOT
ATOM      1  S   UNL     1       1.380   4.738  -5.404  0.00  0.00    -0.041 S 
ENDROOT
BRANCH   1   2
ATOM      2  C   UNL     1      -0.244   5.443  -5.102  0.00  0.00    +0.135 A 
ATOM      3  C   UNL     1      -0.778   5.530  -3.826  0.00  0.00    +0.143 A 
ATOM      4  C   UNL     1      -2.131   5.269  -3.653  0.00  0.00    +0.185 A 
ATOM      5  N   UNL     1      -2.341   5.164  -2.330  0.00  0.00    -0.203 NA
ATOM      6  C   UNL     1      -1.181   5.509  -1.723  0.00  0.00    +0.200 A 
ATOM      7  N   UNL     1      -2.906   5.494  -4.743  0.00  0.00    -0.203 NA
ATOM      8  C   UNL     1      -2.359   5.911  -5.910  0.00  0.00    +0.201 A 
ATOM      9  N   UNL     1      -0.177   5.546  -2.632  0.00  0.00    -0.219 NA
ATOM     10  N   UNL     1      -1.025   5.838  -6.138  0.00  0.00    -0.216 NA
ENDBRANCH   1   2
BRANCH   1  13
ATOM     11  C   UNL     1       3.313   5.367  -2.829  0.00  0.00    +0.133 C 
ATOM     12  N   UNL     1       3.369   6.185  -4.037  0.00  0.00    -0.297 N 
ATOM     13  C   UNL     1       2.614   5.986  -5.130  0.00  0.00    +0.184 A 
ATOM     14  C   UNL     1       3.131   6.782  -6.136  0.00  0.00    +0.400 A 
ATOM     15  N   UNL     1       4.055   7.546  -5.540  0.00  0.00    -0.158 NA
ATOM     16  C   UNL     1       4.152   7.270  -4.231  0.00  0.00    +0.185 A 
BRANCH  14  17
ATOM     17  N   UNL     1       2.499   7.014  -7.401  0.00  0.00    +0.103 N 
ATOM     18  O   UNL     1       2.049   8.297  -7.653  0.00  0.00    -0.575 OA
ATOM     19  O   UNL     1       2.608   6.263  -8.375  0.00  0.00    +0.043 OA
ENDBRANCH  14  17
ENDBRANCH   1  13
TORSDOF 3
ENDMDL
MODEL 3
REMARK VINA RESULT:      -6.5      7.179     10.123
REMARK  Name = 
REMARK  3 active torsions:
REMARK  status: ('A' for Active; 'I' for Inactive)
REMARK    1  A    between atoms: C_5  and  N_6
REMARK    2  A    between atoms: C_9  and  S_10
REMARK    3  A    between atoms: S_10  and  C_11
REMARK                            x       y       z     vdW  Elec       q    Type
REMARK                         _______ _______ _______ _____ _____    ______ ____
ROOT
ATOM      1  S   UNL     1       0.209   6.700  -4.358  0.00  0.00    -0.041 S 
ENDROOT
BRANCH   1   2
ATOM      2  C   UNL     1       1.330   5.385  -4.848  0.00  0.00    +0.135 A 
ATOM      3  C   UNL     1       2.597   5.263  -4.299  0.00  0.00    +0.143 A 
ATOM      4  C   UNL     1       3.648   4.897  -5.132  0.00  0.00    +0.185 A 
ATOM      5  N   UNL     1       4.781   5.098  -4.438  0.00  0.00    -0.203 NA
ATOM      6  C   UNL     1       4.413   5.422  -3.176  0.00  0.00    +0.200 A 
ATOM      7  N   UNL     1       3.295   4.176  -6.224  0.00  0.00    -0.203 NA
ATOM      8  C   UNL     1       1.996   3.880  -6.471  0.00  0.00    +0.201 A 
ATOM      9  N   UNL     1       3.090   5.709  -3.140  0.00  0.00    -0.219 NA
ATOM     10  N   UNL     1       0.986   4.521  -5.835  0.00  0.00    -0.216 NA
ENDBRANCH   1   2
BRANCH   1  13
ATOM     11  C   UNL     1      -2.611   6.048  -5.901  0.00  0.00    +0.133 C 
ATOM     12  N   UNL     1      -2.436   5.748  -4.483  0.00  0.00    -0.297 N 
ATOM     13  C   UNL     1      -1.312   5.982  -3.787  0.00  0.00    +0.184 A 
ATOM     14  C   UNL     1      -1.440   5.335  -2.570  0.00  0.00    +0.400 A 
ATOM     15  N   UNL     1      -2.706   4.901  -2.536  0.00  0.00    -0.158 NA
ATOM     16  C   UNL     1      -3.369   5.226  -3.656  0.00  0.00    +0.185 A 
BRANCH  14  17
ATOM     17  N   UNL     1      -0.549   5.498  -1.461  0.00  0.00    +0.103 N 
ATOM     18  O   UNL     1       0.465   4.566  -1.327  0.00  0.00    -0.575 OA
ATOM     19  O   UNL     1      -0.424   6.548  -0.824  0.00  0.00    +0.043 OA
ENDBRANCH  14  17
ENDBRANCH   1  13
TORSDOF 3
ENDMDL
MODEL 4
REMARK VINA RESULT:      -6.4      9.025     10.682
REMARK  Name = 
REMARK  3 active torsions:
REMARK  status: ('A' for Active; 'I' for Inactive)
REMARK    1  A    between atoms: C_5  and  N_6
REMARK    2  A    between atoms: C_9  and  S_10
REMARK    3  A    between atoms: S_10  and  C_11
REMARK                            x       y       z     vdW  Elec       q    Type
REMARK                         _______ _______ _______ _____ _____    ______ ____
ROOT
ATOM      1  S   UNL     1       1.220   4.922  -1.395  0.00  0.00    -0.041 S 
ENDROOT
BRANCH   1   2
ATOM      2  C   UNL     1      -0.120   5.952  -0.786  0.00  0.00    +0.135 A 
ATOM      3  C   UNL     1      -1.369   5.957  -1.387  0.00  0.00    +0.143 A 
ATOM      4  C   UNL     1      -2.039   7.167  -1.515  0.00  0.00    +0.185 A 
ATOM      5  N   UNL     1      -3.077   6.951  -2.341  0.00  0.00    -0.203 NA
ATOM      6  C   UNL     1      -3.120   5.618  -2.572  0.00  0.00    +0.200 A 
ATOM      7  N   UNL     1      -1.710   8.109  -0.597  0.00  0.00    -0.203 NA
ATOM      8  C   UNL     1      -0.766   7.863   0.343  0.00  0.00    +0.201 A 
ATOM      9  N   UNL     1      -1.971   5.038  -2.149  0.00  0.00    -0.219 NA
ATOM     10  N   UNL     1       0.089   6.816   0.237  0.00  0.00    -0.216 NA
ENDBRANCH   1   2
BRANCH   1  13
ATOM     11  C   UNL     1       0.955   6.536  -4.239  0.00  0.00    +0.133 C 
ATOM     12  N   UNL     1       2.190   6.568  -3.461  0.00  0.00    -0.297 N 
ATOM     13  C   UNL     1       2.371   5.937  -2.289  0.00  0.00    +0.184 A 
ATOM     14  C   UNL     1       3.552   6.412  -1.746  0.00  0.00    +0.400 A 
ATOM     15  N   UNL     1       4.102   7.166  -2.706  0.00  0.00    -0.158 NA
ATOM     16  C   UNL     1       3.335   7.199  -3.805  0.00  0.00    +0.185 A 
BRANCH  14  17
ATOM     17  N   UNL     1       4.206   5.853  -0.600  0.00  0.00    +0.103 N 
ATOM     18  O   UNL     1       4.007   6.492   0.611  0.00  0.00    -0.575 OA
ATOM     19  O   UNL     1       4.655   4.704  -0.554  0.00  0.00    +0.043 OA
ENDBRANCH  14  17
ENDBRANCH   1  13
TORSDOF 3
ENDMDL
MODEL 5
REMARK VINA RESULT:      -6.3      6.167      7.850
REMARK  Name = 
REMARK  3 active torsions:
REMARK  status: ('A' for Active; 'I' for Inactive)
REMARK    1  A    between atoms: C_5  and  N_6
REMARK    2  A    between atoms: C_9  and  S_10
REMARK    3  A    between atoms: S_10  and  C_11
REMARK                            x       y       z     vdW  Elec       q    Type
REMARK                         _______ _______ _______ _____ _____    ______ ____
ROOT
ATOM      1  S   UNL     1       0.529   6.933  -5.325  0.00  0.00    -0.041 S 
ENDROOT
BRANCH   1   2
ATOM      2  C   UNL     1       0.193   5.843  -3.938  0.00  0.00    +0.135 A 
ATOM      3  C   UNL     1      -1.099   5.486  -3.585  0.00  0.00    +0.143 A 
ATOM      4  C   UNL     1      -1.421   5.407  -2.236  0.00  0.00    +0.185 A 
ATOM      5  N   UNL     1      -2.759   5.304  -2.161  0.00  0.00    -0.203 NA
ATOM      6  C   UNL     1      -3.211   5.165  -3.430  0.00  0.00    +0.200 A 
ATOM      7  N   UNL     1      -0.381   5.140  -1.409  0.00  0.00    -0.203 NA
ATOM      8  C   UNL     1       0.876   5.001  -1.896  0.00  0.00    +0.201 A 
ATOM      9  N   UNL     1      -2.224   5.467  -4.307  0.00  0.00    -0.219 NA
ATOM     10  N   UNL     1       1.204   5.405  -3.147  0.00  0.00    -0.216 NA
ENDBRANCH   1   2
BRANCH   1  13
ATOM     11  C   UNL     1      -0.178   5.474  -8.177  0.00  0.00    +0.133 C 
ATOM     12  N   UNL     1       1.185   5.497  -7.655  0.00  0.00    -0.297 N 
ATOM     13  C   UNL     1       1.550   6.077  -6.500  0.00  0.00    +0.184 A 
ATOM     14  C   UNL     1       2.933   6.118  -6.480  0.00  0.00    +0.400 A 
ATOM     15  N   UNL     1       3.320   5.398  -7.541  0.00  0.00    -0.158 NA
ATOM     16  C   UNL     1       2.268   4.922  -8.224  0.00  0.00    +0.185 A 
BRANCH  14  17
ATOM     17  N   UNL     1       3.723   6.477  -5.341  0.00  0.00    +0.103 N 
ATOM     18  O   UNL     1       4.422   5.461  -4.715  0.00  0.00    -0.575 OA
ATOM     19  O   UNL     1       4.072   7.632  -5.080  0.00  0.00    +0.043 OA
ENDBRANCH  14  17
ENDBRANCH   1  13
TORSDOF 3
ENDMDL
MODEL 6
REMARK VINA RESULT:      -6.3      2.576      5.315
REMARK  Name = 
REMARK  3 active torsions:
REMARK  status: ('A' for Active; 'I' for Inactive)
REMARK    1  A    between atoms: C_5  and  N_6
REMARK    2  A    between atoms: C_9  and  S_10
REMARK    3  A    between atoms: S_10  and  C_11
REMARK                            x       y       z     vdW  Elec       q    Type
REMARK                         _______ _______ _______ _____ _____    ______ ____
ROOT
ATOM      1  S   UNL     1       3.893   4.648  -9.361  0.00  0.00    -0.041 S 
ENDROOT
BRANCH   1   2
ATOM      2  C   UNL     1       5.324   5.397 -10.146  0.00  0.00    +0.135 A 
ATOM      3  C   UNL     1       5.453   5.460 -11.524  0.00  0.00    +0.143 A 
ATOM      4  C   UNL     1       6.704   5.238 -12.085  0.00  0.00    +0.185 A 
ATOM      5  N   UNL     1       6.517   5.098 -13.408  0.00  0.00    -0.203 NA
ATOM      6  C   UNL     1       5.217   5.385 -13.651  0.00  0.00    +0.200 A 
ATOM      7  N   UNL     1       7.757   5.524 -11.280  0.00  0.00    -0.203 NA
ATOM      8  C   UNL     1       7.562   5.960 -10.012  0.00  0.00    +0.201 A 
ATOM      9  N   UNL     1       4.526   5.418 -12.487  0.00  0.00    -0.219 NA
ATOM     10  N   UNL     1       6.360   5.850  -9.397  0.00  0.00    -0.216 NA
ENDBRANCH   1   2
BRANCH   1  13
ATOM     11  C   UNL     1       4.411   5.939  -6.390  0.00  0.00    +0.133 C 
ATOM     12  N   UNL     1       3.290   6.371  -7.218  0.00  0.00    -0.297 N 
ATOM     13  C   UNL     1       3.018   5.892  -8.444  0.00  0.00    +0.184 A 
ATOM     14  C   UNL     1       2.057   6.717  -9.003  0.00  0.00    +0.400 A 
ATOM     15  N   UNL     1       1.679   7.536  -8.013  0.00  0.00    -0.158 NA
ATOM     16  C   UNL     1       2.349   7.280  -6.879  0.00  0.00    +0.185 A 
BRANCH  14  17
ATOM     17  N   UNL     1       1.350   6.441 -10.217  0.00  0.00    +0.103 N 
ATOM     18  O   UNL     1       0.009   6.122 -10.106  0.00  0.00    -0.575 OA
ATOM     19  O   UNL     1       1.751   6.768 -11.338  0.00  0.00    +0.043 OA
ENDBRANCH  14  17
ENDBRANCH   1  13
TORSDOF 3
ENDMDL
MODEL 7
REMARK VINA RESULT:      -6.3      5.730      7.628
REMARK  Name = 
REMARK  3 active torsions:
REMARK  status: ('A' for Active; 'I' for Inactive)
REMARK    1  A    between atoms: C_5  and  N_6
REMARK    2  A    between atoms: C_9  and  S_10
REMARK    3  A    between atoms: S_10  and  C_11
REMARK                            x       y       z     vdW  Elec       q    Type
REMARK                         _______ _______ _______ _____ _____    ______ ____
ROOT
ATOM      1  S   UNL     1       1.069   4.691  -5.988  0.00  0.00    -0.041 S 
ENDROOT
BRANCH   1   2
ATOM      2  C   UNL     1      -0.166   5.564  -5.019  0.00  0.00    +0.135 A 
ATOM      3  C   UNL     1      -0.171   5.524  -3.634  0.00  0.00    +0.143 A 
ATOM      4  C   UNL     1      -1.392   5.434  -2.977  0.00  0.00    +0.185 A 
ATOM      5  N   UNL     1      -1.122   5.153  -1.691  0.00  0.00    -0.203 NA
ATOM      6  C   UNL     1       0.223   5.229  -1.549  0.00  0.00    +0.200 A 
ATOM      7  N   UNL     1      -2.452   5.937  -3.657  0.00  0.00    -0.203 NA
ATOM      8  C   UNL     1      -2.298   6.451  -4.902  0.00  0.00    +0.201 A 
ATOM      9  N   UNL     1       0.814   5.266  -2.767  0.00  0.00    -0.219 NA
ATOM     10  N   UNL     1      -1.179   6.224  -5.632  0.00  0.00    -0.216 NA
ENDBRANCH   1   2
BRANCH   1  13
ATOM     11  C   UNL     1      -0.037   5.449  -8.982  0.00  0.00    +0.133 C 
ATOM     12  N   UNL     1       1.189   6.039  -8.456  0.00  0.00    -0.297 N 
ATOM     13  C   UNL     1       1.700   5.781  -7.240  0.00  0.00    +0.184 A 
ATOM     14  C   UNL     1       2.700   6.709  -7.010  0.00  0.00    +0.400 A 
ATOM     15  N   UNL     1       2.852   7.357  -8.172  0.00  0.00    -0.158 NA
ATOM     16  C   UNL     1       2.005   6.898  -9.106  0.00  0.00    +0.185 A 
BRANCH  14  17
ATOM     17  N   UNL     1       3.626   6.659  -5.918  0.00  0.00    +0.103 N 
ATOM     18  O   UNL     1       4.556   5.634  -5.929  0.00  0.00    -0.575 OA
ATOM     19  O   UNL     1       3.857   7.609  -5.165  0.00  0.00    +0.043 OA
ENDBRANCH  14  17
ENDBRANCH   1  13
TORSDOF 3
ENDMDL
MODEL 8
REMARK VINA RESULT:      -6.1      8.472     10.059
REMARK  Name = 
REMARK  3 active torsions:
REMARK  status: ('A' for Active; 'I' for Inactive)
REMARK    1  A    between atoms: C_5  and  N_6
REMARK    2  A    between atoms: C_9  and  S_10
REMARK    3  A    between atoms: S_10  and  C_11
REMARK                            x       y       z     vdW  Elec       q    Type
REMARK                         _______ _______ _______ _____ _____    ______ ____
ROOT
ATOM      1  S   UNL     1       1.294   5.083  -1.350  0.00  0.00    -0.041 S 
ENDROOT
BRANCH   1   2
ATOM      2  C   UNL     1      -0.107   6.023  -0.733  0.00  0.00    +0.135 A 
ATOM      3  C   UNL     1      -1.347   5.979  -1.352  0.00  0.00    +0.143 A 
ATOM      4  C   UNL     1      -2.078   7.155  -1.457  0.00  0.00    +0.185 A 
ATOM      5  N   UNL     1      -3.093   6.907  -2.303  0.00  0.00    -0.203 NA
ATOM      6  C   UNL     1      -3.061   5.580  -2.571  0.00  0.00    +0.200 A 
ATOM      7  N   UNL     1      -1.812   8.087  -0.510  0.00  0.00    -0.203 NA
ATOM      8  C   UNL     1      -0.868   7.866   0.437  0.00  0.00    +0.201 A 
ATOM      9  N   UNL     1      -1.889   5.051  -2.147  0.00  0.00    -0.219 NA
ATOM     10  N   UNL     1       0.042   6.869   0.316  0.00  0.00    -0.216 NA
ENDBRANCH   1   2
BRANCH   1  13
ATOM     11  C   UNL     1       4.178   6.468  -0.624  0.00  0.00    +0.133 C 
ATOM     12  N   UNL     1       3.529   6.699  -1.910  0.00  0.00    -0.297 N 
ATOM     13  C   UNL     1       2.353   6.164  -2.279  0.00  0.00    +0.184 A 
ATOM     14  C   UNL     1       2.203   6.400  -3.635  0.00  0.00    +0.400 A 
ATOM     15  N   UNL     1       3.211   7.217  -3.963  0.00  0.00    -0.158 NA
ATOM     16  C   UNL     1       3.984   7.497  -2.902  0.00  0.00    +0.185 A 
BRANCH  14  17
ATOM     17  N   UNL     1       0.999   6.167  -4.375  0.00  0.00    +0.103 N 
ATOM     18  O   UNL     1       0.773   4.876  -4.819  0.00  0.00    -0.575 OA
ATOM     19  O   UNL     1       0.029   6.930  -4.372  0.00  0.00    +0.043 OA
ENDBRANCH  14  17
ENDBRANCH   1  13
TORSDOF 3
ENDMDL
MODEL 9
REMARK VINA RESULT:      -6.1      6.528      9.092
REMARK  Name = 
REMARK  3 active torsions:
REMARK  status: ('A' for Active; 'I' for Inactive)
REMARK    1  A    between atoms: C_5  and  N_6
REMARK    2  A    between atoms: C_9  and  S_10
REMARK    3  A    between atoms: S_10  and  C_11
REMARK                            x       y       z     vdW  Elec       q    Type
REMARK                         _______ _______ _______ _____ _____    ______ ____
ROOT
ATOM      1  S   UNL     1       1.804   6.699  -4.588  0.00  0.00    -0.041 S 
ENDROOT
BRANCH   1   2
ATOM      2  C   UNL     1       1.646   6.181  -2.875  0.00  0.00    +0.135 A 
ATOM      3  C   UNL     1       2.663   6.378  -1.955  0.00  0.00    +0.143 A 
ATOM      4  C   UNL     1       2.922   5.376  -1.028  0.00  0.00    +0.185 A 
ATOM      5  N   UNL     1       4.089   5.685  -0.438  0.00  0.00    -0.203 NA
ATOM      6  C   UNL     1       4.438   6.915  -0.884  0.00  0.00    +0.200 A 
ATOM      7  N   UNL     1       1.868   4.577  -0.732  0.00  0.00    -0.203 NA
ATOM      8  C   UNL     1       0.671   4.752  -1.342  0.00  0.00    +0.201 A 
ATOM      9  N   UNL     1       3.673   7.254  -1.949  0.00  0.00    -0.219 NA
ATOM     10  N   UNL     1       0.545   5.506  -2.461  0.00  0.00    -0.216 NA
ENDBRANCH   1   2
BRANCH   1  13
ATOM     11  C   UNL     1      -1.314   7.717  -4.637  0.00  0.00    +0.133 C 
ATOM     12  N   UNL     1      -0.869   6.598  -5.463  0.00  0.00    -0.297 N 
ATOM     13  C   UNL     1       0.389   6.130  -5.499  0.00  0.00    +0.184 A 
ATOM     14  C   UNL     1       0.472   5.259  -6.571  0.00  0.00    +0.400 A 
ATOM     15  N   UNL     1      -0.786   5.118  -7.007  0.00  0.00    -0.158 NA
ATOM     16  C   UNL     1      -1.643   5.852  -6.282  0.00  0.00    +0.185 A 
BRANCH  14  17
ATOM     17  N   UNL     1       1.584   4.396  -6.838  0.00  0.00    +0.103 N 
ATOM     18  O   UNL     1       2.586   4.894  -7.652  0.00  0.00    -0.575 OA
ATOM     19  O   UNL     1       1.862   3.400  -6.163  0.00  0.00    +0.043 OA
ENDBRANCH  14  17
ENDBRANCH   1  13
TORSDOF 3
ENDMDL
