MODEL 1
REMARK VINA RESULT:      -6.7      0.000      0.000
REMARK  Name = 
REMARK  13 active torsions:
REMARK  status: ('A' for Active; 'I' for Inactive)
REMARK    1  A    between atoms: C_2  and  C_3
REMARK    2  A    between atoms: C_4  and  C_5
REMARK    3  A    between atoms: C_5  and  C_6
REMARK    4  A    between atoms: C_7  and  C_8
REMARK    5  A    between atoms: C_8  and  C_9
REMARK    6  A    between atoms: C_10  and  C_11
REMARK    7  A    between atoms: C_11  and  C_12
REMARK    8  A    between atoms: C_13  and  C_14
REMARK    9  A    between atoms: C_14  and  C_15
REMARK   10  A    between atoms: C_16  and  C_17
REMARK   11  A    between atoms: C_17  and  C_18
REMARK   12  A    between atoms: C_18  and  C_19
REMARK   13  A    between atoms: C_19  and  C_20
REMARK                            x       y       z     vdW  Elec       q    Type
REMARK                         _______ _______ _______ _____ _____    ______ ____
ROOT
ATOM      1  C   UNL     1       2.118   6.725  -5.523  0.00  0.00    +0.051 C 
ENDROOT
BRANCH   1   2
ATOM      2  C   UNL     1       1.612   5.421  -5.050  0.00  0.00    -0.026 C 
ATOM      3  C   UNL     1       0.680   4.823  -5.784  0.00  0.00    -0.026 C 
BRANCH   3   4
ATOM      4  C   UNL     1      -0.160   5.498  -6.789  0.00  0.00    +0.051 C 
BRANCH   4   5
ATOM      5  C   UNL     1      -1.589   5.161  -6.706  0.00  0.00    -0.026 C 
ATOM      6  C   UNL     1      -2.545   5.950  -6.264  0.00  0.00    -0.030 C 
BRANCH   6   7
ATOM      7  C   UNL     1      -2.125   7.143  -5.472  0.00  0.00    +0.026 C 
BRANCH   7   8
ATOM      8  C   UNL     1      -2.595   7.036  -4.040  0.00  0.00    +0.016 C 
BRANCH   8   9
ATOM      9  C   UNL     1      -1.467   6.776  -3.080  0.00  0.00    +0.114 C 
BRANCH   9  10
ATOM     10  C   UNL     1      -1.455   5.337  -2.687  0.00  0.00    +0.365 C 
ATOM     11  O   UNL     1      -2.679   4.670  -2.637  0.00  0.00    -0.246 OA
ATOM     12  O   UNL     1      -0.458   4.928  -2.026  0.00  0.00    -0.246 OA
ENDBRANCH   9  10
ENDBRANCH   8   9
ENDBRANCH   7   8
ENDBRANCH   6   7
ENDBRANCH   4   5
ENDBRANCH   3   4
ENDBRANCH   1   2
BRANCH   1  14
ATOM     13  C   UNL     1       4.225   5.962  -6.348  0.00  0.00    -0.026 C 
ATOM     14  C   UNL     1       3.616   6.755  -5.457  0.00  0.00    -0.026 C 
BRANCH  13  15
ATOM     15  C   UNL     1       3.728   6.114  -7.756  0.00  0.00    +0.051 C 
BRANCH  15  17
ATOM     16  C   UNL     1       2.867   4.220  -8.950  0.00  0.00    -0.026 C 
ATOM     17  C   UNL     1       3.956   4.782  -8.408  0.00  0.00    -0.026 C 
BRANCH  16  18
ATOM     18  C   UNL     1       1.952   5.172  -9.659  0.00  0.00    +0.051 C 
BRANCH  18  20
ATOM     19  C   UNL     1      -0.122   5.245 -10.864  0.00  0.00    -0.030 C 
ATOM     20  C   UNL     1       0.775   4.470 -10.247  0.00  0.00    -0.026 C 
BRANCH  19  22
ATOM     21  C   UNL     1      -0.600   7.551 -11.545  0.00  0.00    +0.005 C 
ATOM     22  C   UNL     1       0.383   6.418 -11.642  0.00  0.00    +0.026 C 
ENDBRANCH  19  22
ENDBRANCH  18  20
ENDBRANCH  16  18
ENDBRANCH  15  17
ENDBRANCH  13  15
ENDBRANCH   1  14
TORSDOF 13
ENDMDL
MODEL 2
REMARK VINA RESULT:      -6.5      2.249      3.418
REMARK  Name = 
REMARK  13 active torsions:
REMARK  status: ('A' for Active; 'I' for Inactive)
REMARK    1  A    between atoms: C_2  and  C_3
REMARK    2  A    between atoms: C_4  and  C_5
REMARK    3  A    between atoms: C_5  and  C_6
REMARK    4  A    between atoms: C_7  and  C_8
REMARK    5  A    between atoms: C_8  and  C_9
REMARK    6  A    between atoms: C_10  and  C_11
REMARK    7  A    between atoms: C_11  and  C_12
REMARK    8  A    between atoms: C_13  and  C_14
REMARK    9  A    between atoms: C_14  and  C_15
REMARK   10  A    between atoms: C_16  and  C_17
REMARK   11  A    between atoms: C_17  and  C_18
REMARK   12  A    between atoms: C_18  and  C_19
REMARK   13  A    between atoms: C_19  and  C_20
REMARK                            x       y       z     vdW  Elec       q    Type
REMARK                         _______ _______ _______ _____ _____    ______ ____
ROOT
ATOM      1  C   UNL     1       2.396   6.592  -5.388  0.00  0.00    +0.051 C 
ENDROOT
BRANCH   1   2
ATOM      2  C   UNL     1       1.739   5.414  -4.785  0.00  0.00    -0.026 C 
ATOM      3  C   UNL     1       0.761   4.839  -5.476  0.00  0.00    -0.026 C 
BRANCH   3   4
ATOM      4  C   UNL     1       0.023   5.478  -6.579  0.00  0.00    +0.051 C 
BRANCH   4   5
ATOM      5  C   UNL     1      -1.400   5.109  -6.647  0.00  0.00    -0.026 C 
ATOM      6  C   UNL     1      -2.414   5.870  -6.295  0.00  0.00    -0.030 C 
BRANCH   6   7
ATOM      7  C   UNL     1      -2.105   7.060  -5.449  0.00  0.00    +0.026 C 
BRANCH   7   8
ATOM      8  C   UNL     1      -2.670   6.897  -4.058  0.00  0.00    +0.016 C 
BRANCH   8   9
ATOM      9  C   UNL     1      -1.598   6.773  -3.010  0.00  0.00    +0.114 C 
BRANCH   9  10
ATOM     10  C   UNL     1      -1.652   5.420  -2.385  0.00  0.00    +0.365 C 
ATOM     11  O   UNL     1      -0.448   4.857  -1.957  0.00  0.00    -0.246 OA
ATOM     12  O   UNL     1      -2.654   4.698  -2.655  0.00  0.00    -0.246 OA
ENDBRANCH   9  10
ENDBRANCH   8   9
ENDBRANCH   7   8
ENDBRANCH   6   7
ENDBRANCH   4   5
ENDBRANCH   3   4
ENDBRANCH   1   2
BRANCH   1  14
ATOM     13  C   UNL     1       4.268   5.657  -6.541  0.00  0.00    -0.026 C 
ATOM     14  C   UNL     1       3.877   6.370  -5.475  0.00  0.00    -0.026 C 
BRANCH  13  15
ATOM     15  C   UNL     1       3.698   6.130  -7.846  0.00  0.00    +0.051 C 
BRANCH  15  17
ATOM     16  C   UNL     1       4.379   5.127  -9.915  0.00  0.00    -0.026 C 
ATOM     17  C   UNL     1       3.734   4.938  -8.756  0.00  0.00    -0.026 C 
BRANCH  16  18
ATOM     18  C   UNL     1       5.635   5.939  -9.815  0.00  0.00    +0.051 C 
BRANCH  18  20
ATOM     19  C   UNL     1       6.947   7.372 -11.222  0.00  0.00    -0.030 C 
ATOM     20  C   UNL     1       5.717   6.961 -10.897  0.00  0.00    -0.026 C 
BRANCH  19  22
ATOM     21  C   UNL     1       8.231   5.782 -12.577  0.00  0.00    +0.005 C 
ATOM     22  C   UNL     1       8.051   6.364 -11.202  0.00  0.00    +0.026 C 
ENDBRANCH  19  22
ENDBRANCH  18  20
ENDBRANCH  16  18
ENDBRANCH  15  17
ENDBRANCH  13  15
ENDBRANCH   1  14
TORSDOF 13
ENDMDL
MODEL 3
REMARK VINA RESULT:      -6.1      4.914      8.538
REMARK  Name = 
REMARK  13 active torsions:
REMARK  status: ('A' for Active; 'I' for Inactive)
REMARK    1  A    between atoms: C_2  and  C_3
REMARK    2  A    between atoms: C_4  and  C_5
REMARK    3  A    between atoms: C_5  and  C_6
REMARK    4  A    between atoms: C_7  and  C_8
REMARK    5  A    between atoms: C_8  and  C_9
REMARK    6  A    between atoms: C_10  and  C_11
REMARK    7  A    between atoms: C_11  and  C_12
REMARK    8  A    between atoms: C_13  and  C_14
REMARK    9  A    between atoms: C_14  and  C_15
REMARK   10  A    between atoms: C_16  and  C_17
REMARK   11  A    between atoms: C_17  and  C_18
REMARK   12  A    between atoms: C_18  and  C_19
REMARK   13  A    between atoms: C_19  and  C_20
REMARK                            x       y       z     vdW  Elec       q    Type
REMARK                         _______ _______ _______ _____ _____    ______ ____
ROOT
ATOM      1  C   UNL     1       3.456   6.510  -8.379  0.00  0.00    +0.051 C 
ENDROOT
BRANCH   1   2
ATOM      2  C   UNL     1       3.832   5.200  -8.948  0.00  0.00    -0.026 C 
ATOM      3  C   UNL     1       5.095   4.811  -8.810  0.00  0.00    -0.026 C 
BRANCH   3   4
ATOM      4  C   UNL     1       6.220   5.709  -8.496  0.00  0.00    +0.051 C 
BRANCH   4   5
ATOM      5  C   UNL     1       7.309   5.680  -9.485  0.00  0.00    -0.026 C 
ATOM      6  C   UNL     1       7.576   6.617 -10.369  0.00  0.00    -0.030 C 
BRANCH   6   7
ATOM      7  C   UNL     1       6.507   7.626 -10.629  0.00  0.00    +0.026 C 
BRANCH   7   8
ATOM      8  C   UNL     1       5.702   7.259 -11.853  0.00  0.00    +0.016 C 
BRANCH   8   9
ATOM      9  C   UNL     1       6.568   6.841 -13.009  0.00  0.00    +0.114 C 
BRANCH   9  10
ATOM     10  C   UNL     1       6.516   5.358 -13.174  0.00  0.00    +0.365 C 
ATOM     11  O   UNL     1       7.725   4.684 -13.343  0.00  0.00    -0.246 OA
ATOM     12  O   UNL     1       5.425   4.860 -13.575  0.00  0.00    -0.246 OA
ENDBRANCH   9  10
ENDBRANCH   8   9
ENDBRANCH   7   8
ENDBRANCH   6   7
ENDBRANCH   4   5
ENDBRANCH   3   4
ENDBRANCH   1   2
BRANCH   1  14
ATOM     13  C   UNL     1       1.074   6.449  -8.535  0.00  0.00    -0.026 C 
ATOM     14  C   UNL     1       2.192   7.008  -9.015  0.00  0.00    -0.026 C 
BRANCH  13  15
ATOM     15  C   UNL     1       0.977   6.441  -7.038  0.00  0.00    +0.051 C 
BRANCH  15  17
ATOM     16  C   UNL     1       1.351   4.297  -6.030  0.00  0.00    -0.026 C 
ATOM     17  C   UNL     1       0.472   5.075  -6.675  0.00  0.00    -0.026 C 
BRANCH  16  18
ATOM     18  C   UNL     1       2.187   5.002  -5.006  0.00  0.00    +0.051 C 
BRANCH  18  20
ATOM     19  C   UNL     1       4.518   5.567  -4.961  0.00  0.00    -0.030 C 
ATOM     20  C   UNL     1       3.617   4.587  -5.081  0.00  0.00    -0.026 C 
BRANCH  19  22
ATOM     21  C   UNL     1       5.128   7.845  -4.292  0.00  0.00    +0.005 C 
ATOM     22  C   UNL     1       4.221   6.680  -4.008  0.00  0.00    +0.026 C 
ENDBRANCH  19  22
ENDBRANCH  18  20
ENDBRANCH  16  18
ENDBRANCH  15  17
ENDBRANCH  13  15
ENDBRANCH   1  14
TORSDOF 13
ENDMDL
MODEL 4
REMARK VINA RESULT:      -6.1      4.850      7.525
REMARK  Name = 
REMARK  13 active torsions:
REMARK  status: ('A' for Active; 'I' for Inactive)
REMARK    1  A    between atoms: C_2  and  C_3
REMARK    2  A    between atoms: C_4  and  C_5
REMARK    3  A    between atoms: C_5  and  C_6
REMARK    4  A    between atoms: C_7  and  C_8
REMARK    5  A    between atoms: C_8  and  C_9
REMARK    6  A    between atoms: C_10  and  C_11
REMARK    7  A    between atoms: C_11  and  C_12
REMARK    8  A    between atoms: C_13  and  C_14
REMARK    9  A    between atoms: C_14  and  C_15
REMARK   10  A    between atoms: C_16  and  C_17
REMARK   11  A    between atoms: C_17  and  C_18
REMARK   12  A    between atoms: C_18  and  C_19
REMARK   13  A    between atoms: C_19  and  C_20
REMARK                            x       y       z     vdW  Elec       q    Type
REMARK                         _______ _______ _______ _____ _____    ______ ____
ROOT
ATOM      1  C   UNL     1       3.328   6.530  -6.022  0.00  0.00    +0.051 C 
ENDROOT
BRANCH   1   2
ATOM      2  C   UNL     1       4.218   5.458  -6.512  0.00  0.00    -0.026 C 
ATOM      3  C   UNL     1       4.592   5.507  -7.786  0.00  0.00    -0.026 C 
BRANCH   3   4
ATOM      4  C   UNL     1       3.909   6.288  -8.832  0.00  0.00    +0.051 C 
BRANCH   4   5
ATOM      5  C   UNL     1       4.011   5.709 -10.181  0.00  0.00    -0.026 C 
ATOM      6  C   UNL     1       4.826   6.108 -11.134  0.00  0.00    -0.030 C 
BRANCH   6   7
ATOM      7  C   UNL     1       5.453   7.452 -10.969  0.00  0.00    +0.026 C 
BRANCH   7   8
ATOM      8  C   UNL     1       6.926   7.408 -11.302  0.00  0.00    +0.016 C 
BRANCH   8   9
ATOM      9  C   UNL     1       7.187   6.915 -12.698  0.00  0.00    +0.114 C 
BRANCH   9  10
ATOM     10  C   UNL     1       8.159   5.784 -12.665  0.00  0.00    +0.365 C 
ATOM     11  O   UNL     1       7.656   4.494 -12.834  0.00  0.00    -0.246 OA
ATOM     12  O   UNL     1       9.261   5.987 -12.080  0.00  0.00    -0.246 OA
ENDBRANCH   9  10
ENDBRANCH   8   9
ENDBRANCH   7   8
ENDBRANCH   6   7
ENDBRANCH   4   5
ENDBRANCH   3   4
ENDBRANCH   1   2
BRANCH   1  14
ATOM     13  C   UNL     1       1.349   6.700  -4.696  0.00  0.00    -0.026 C 
ATOM     14  C   UNL     1       2.493   6.028  -4.881  0.00  0.00    -0.026 C 
BRANCH  13  15
ATOM     15  C   UNL     1       0.533   6.891  -5.941  0.00  0.00    +0.051 C 
BRANCH  15  17
ATOM     16  C   UNL     1      -0.501   5.333  -7.443  0.00  0.00    -0.026 C 
ATOM     17  C   UNL     1      -0.162   5.581  -6.171  0.00  0.00    -0.026 C 
BRANCH  16  18
ATOM     18  C   UNL     1       0.520   5.744  -8.460  0.00  0.00    +0.051 C 
BRANCH  18  20
ATOM     19  C   UNL     1      -0.001   5.363 -10.771  0.00  0.00    -0.030 C 
ATOM     20  C   UNL     1       0.506   4.844  -9.648  0.00  0.00    -0.026 C 
BRANCH  19  22
ATOM     21  C   UNL     1       0.948   6.937 -12.393  0.00  0.00    +0.005 C 
ATOM     22  C   UNL     1       0.266   6.805 -11.060  0.00  0.00    +0.026 C 
ENDBRANCH  19  22
ENDBRANCH  18  20
ENDBRANCH  16  18
ENDBRANCH  15  17
ENDBRANCH  13  15
ENDBRANCH   1  14
TORSDOF 13
ENDMDL
MODEL 5
REMARK VINA RESULT:      -6.1      3.015      6.791
REMARK  Name = 
REMARK  13 active torsions:
REMARK  status: ('A' for Active; 'I' for Inactive)
REMARK    1  A    between atoms: C_2  and  C_3
REMARK    2  A    between atoms: C_4  and  C_5
REMARK    3  A    between atoms: C_5  and  C_6
REMARK    4  A    between atoms: C_7  and  C_8
REMARK    5  A    between atoms: C_8  and  C_9
REMARK    6  A    between atoms: C_10  and  C_11
REMARK    7  A    between atoms: C_11  and  C_12
REMARK    8  A    between atoms: C_13  and  C_14
REMARK    9  A    between atoms: C_14  and  C_15
REMARK   10  A    between atoms: C_16  and  C_17
REMARK   11  A    between atoms: C_17  and  C_18
REMARK   12  A    between atoms: C_18  and  C_19
REMARK   13  A    between atoms: C_19  and  C_20
REMARK                            x       y       z     vdW  Elec       q    Type
REMARK                         _______ _______ _______ _____ _____    ______ ____
ROOT
ATOM      1  C   UNL     1      -2.231   6.655  -5.165  0.00  0.00    +0.051 C 
ENDROOT
BRANCH   1   2
ATOM      2  C   UNL     1      -2.377   5.737  -6.312  0.00  0.00    -0.026 C 
ATOM      3  C   UNL     1      -1.278   5.145  -6.766  0.00  0.00    -0.026 C 
BRANCH   3   4
ATOM      4  C   UNL     1       0.096   5.602  -6.495  0.00  0.00    +0.051 C 
BRANCH   4   5
ATOM      5  C   UNL     1       0.925   4.626  -5.770  0.00  0.00    -0.026 C 
ATOM      6  C   UNL     1       1.991   4.016  -6.242  0.00  0.00    -0.030 C 
BRANCH   6   7
ATOM      7  C   UNL     1       2.188   4.045  -7.721  0.00  0.00    +0.026 C 
BRANCH   7   8
ATOM      8  C   UNL     1       3.496   4.710  -8.081  0.00  0.00    +0.016 C 
BRANCH   8   9
ATOM      9  C   UNL     1       3.593   6.116  -7.555  0.00  0.00    +0.114 C 
BRANCH   9  10
ATOM     10  C   UNL     1       3.043   7.074  -8.557  0.00  0.00    +0.365 C 
ATOM     11  O   UNL     1       2.002   7.908  -8.150  0.00  0.00    -0.246 OA
ATOM     12  O   UNL     1       3.224   6.799  -9.778  0.00  0.00    -0.246 OA
ENDBRANCH   9  10
ENDBRANCH   8   9
ENDBRANCH   7   8
ENDBRANCH   6   7
ENDBRANCH   4   5
ENDBRANCH   3   4
ENDBRANCH   1   2
BRANCH   1  14
ATOM     13  C   UNL     1      -2.067   5.384  -3.150  0.00  0.00    -0.026 C 
ATOM     14  C   UNL     1      -2.891   6.074  -3.949  0.00  0.00    -0.026 C 
BRANCH  13  15
ATOM     15  C   UNL     1      -0.794   6.099  -2.804  0.00  0.00    +0.051 C 
BRANCH  15  17
ATOM     16  C   UNL     1       1.013   4.983  -1.689  0.00  0.00    -0.026 C 
ATOM     17  C   UNL     1      -0.257   5.399  -1.590  0.00  0.00    -0.026 C 
BRANCH  16  18
ATOM     18  C   UNL     1       1.937   5.936  -2.384  0.00  0.00    +0.051 C 
BRANCH  18  20
ATOM     19  C   UNL     1       3.935   5.691  -3.690  0.00  0.00    -0.030 C 
ATOM     20  C   UNL     1       3.296   5.349  -2.568  0.00  0.00    -0.026 C 
BRANCH  19  22
ATOM     21  C   UNL     1       5.040   7.857  -4.004  0.00  0.00    +0.005 C 
ATOM     22  C   UNL     1       3.763   7.087  -4.197  0.00  0.00    +0.026 C 
ENDBRANCH  19  22
ENDBRANCH  18  20
ENDBRANCH  16  18
ENDBRANCH  15  17
ENDBRANCH  13  15
ENDBRANCH   1  14
TORSDOF 13
ENDMDL
MODEL 6
REMARK VINA RESULT:      -6.1      2.335      3.894
REMARK  Name = 
REMARK  13 active torsions:
REMARK  status: ('A' for Active; 'I' for Inactive)
REMARK    1  A    between atoms: C_2  and  C_3
REMARK    2  A    between atoms: C_4  and  C_5
REMARK    3  A    between atoms: C_5  and  C_6
REMARK    4  A    between atoms: C_7  and  C_8
REMARK    5  A    between atoms: C_8  and  C_9
REMARK    6  A    between atoms: C_10  and  C_11
REMARK    7  A    between atoms: C_11  and  C_12
REMARK    8  A    between atoms: C_13  and  C_14
REMARK    9  A    between atoms: C_14  and  C_15
REMARK   10  A    between atoms: C_16  and  C_17
REMARK   11  A    between atoms: C_17  and  C_18
REMARK   12  A    between atoms: C_18  and  C_19
REMARK   13  A    between atoms: C_19  and  C_20
REMARK                            x       y       z     vdW  Elec       q    Type
REMARK                         _______ _______ _______ _____ _____    ______ ____
ROOT
ATOM      1  C   UNL     1       3.576   7.141  -5.744  0.00  0.00    +0.051 C 
ENDROOT
BRANCH   1   2
ATOM      2  C   UNL     1       3.481   7.191  -4.271  0.00  0.00    -0.026 C 
ATOM      3  C   UNL     1       2.384   6.693  -3.711  0.00  0.00    -0.026 C 
BRANCH   3   4
ATOM      4  C   UNL     1       1.113   6.458  -4.417  0.00  0.00    +0.051 C 
BRANCH   4   5
ATOM      5  C   UNL     1       0.901   5.061  -4.828  0.00  0.00    -0.026 C 
ATOM      6  C   UNL     1       0.320   4.662  -5.939  0.00  0.00    -0.030 C 
BRANCH   6   7
ATOM      7  C   UNL     1      -0.488   5.674  -6.682  0.00  0.00    +0.026 C 
BRANCH   7   8
ATOM      8  C   UNL     1      -1.949   5.577  -6.313  0.00  0.00    +0.016 C 
BRANCH   8   9
ATOM      9  C   UNL     1      -2.447   6.802  -5.597  0.00  0.00    +0.114 C 
BRANCH   9  10
ATOM     10  C   UNL     1      -2.605   6.513  -4.142  0.00  0.00    +0.365 C 
ATOM     11  O   UNL     1      -2.237   7.513  -3.241  0.00  0.00    -0.246 OA
ATOM     12  O   UNL     1      -2.641   5.298  -3.795  0.00  0.00    -0.246 OA
ENDBRANCH   9  10
ENDBRANCH   8   9
ENDBRANCH   7   8
ENDBRANCH   6   7
ENDBRANCH   4   5
ENDBRANCH   3   4
ENDBRANCH   1   2
BRANCH   1  14
ATOM     13  C   UNL     1       3.869   5.153  -7.035  0.00  0.00    -0.026 C 
ATOM     14  C   UNL     1       4.447   5.996  -6.169  0.00  0.00    -0.026 C 
BRANCH  13  15
ATOM     15  C   UNL     1       3.215   5.821  -8.209  0.00  0.00    +0.051 C 
BRANCH  15  17
ATOM     16  C   UNL     1       3.984   5.774 -10.481  0.00  0.00    -0.026 C 
ATOM     17  C   UNL     1       3.653   5.037  -9.411  0.00  0.00    -0.026 C 
BRANCH  16  18
ATOM     18  C   UNL     1       4.752   7.024 -10.173  0.00  0.00    +0.051 C 
BRANCH  18  20
ATOM     19  C   UNL     1       6.871   7.642 -11.113  0.00  0.00    -0.030 C 
ATOM     20  C   UNL     1       5.565   7.472 -11.339  0.00  0.00    -0.026 C 
BRANCH  19  22
ATOM     21  C   UNL     1       8.021   5.484 -10.944  0.00  0.00    +0.005 C 
ATOM     22  C   UNL     1       7.551   6.691 -10.181  0.00  0.00    +0.026 C 
ENDBRANCH  19  22
ENDBRANCH  18  20
ENDBRANCH  16  18
ENDBRANCH  15  17
ENDBRANCH  13  15
ENDBRANCH   1  14
TORSDOF 13
ENDMDL
MODEL 7
REMARK VINA RESULT:      -6.0      3.161      6.836
REMARK  Name = 
REMARK  13 active torsions:
REMARK  status: ('A' for Active; 'I' for Inactive)
REMARK    1  A    between atoms: C_2  and  C_3
REMARK    2  A    between atoms: C_4  and  C_5
REMARK    3  A    between atoms: C_5  and  C_6
REMARK    4  A    between atoms: C_7  and  C_8
REMARK    5  A    between atoms: C_8  and  C_9
REMARK    6  A    between atoms: C_10  and  C_11
REMARK    7  A    between atoms: C_11  and  C_12
REMARK    8  A    between atoms: C_13  and  C_14
REMARK    9  A    between atoms: C_14  and  C_15
REMARK   10  A    between atoms: C_16  and  C_17
REMARK   11  A    between atoms: C_17  and  C_18
REMARK   12  A    between atoms: C_18  and  C_19
REMARK   13  A    between atoms: C_19  and  C_20
REMARK                            x       y       z     vdW  Elec       q    Type
REMARK                         _______ _______ _______ _____ _____    ______ ____
ROOT
ATOM      1  C   UNL     1      -2.000   7.632  -1.852  0.00  0.00    +0.051 C 
ENDROOT
BRANCH   1   2
ATOM      2  C   UNL     1      -3.111   6.755  -2.272  0.00  0.00    -0.026 C 
ATOM      3  C   UNL     1      -3.044   6.221  -3.487  0.00  0.00    -0.026 C 
BRANCH   3   4
ATOM      4  C   UNL     1      -2.184   6.716  -4.576  0.00  0.00    +0.051 C 
BRANCH   4   5
ATOM      5  C   UNL     1      -2.526   6.184  -5.904  0.00  0.00    -0.026 C 
ATOM      6  C   UNL     1      -1.766   5.407  -6.645  0.00  0.00    -0.030 C 
BRANCH   6   7
ATOM      7  C   UNL     1      -0.320   5.328  -6.280  0.00  0.00    +0.026 C 
BRANCH   7   8
ATOM      8  C   UNL     1       0.543   5.206  -7.513  0.00  0.00    +0.016 C 
BRANCH   8   9
ATOM      9  C   UNL     1       1.805   6.018  -7.418  0.00  0.00    +0.114 C 
BRANCH   9  10
ATOM     10  C   UNL     1       1.667   7.269  -8.220  0.00  0.00    +0.365 C 
ATOM     11  O   UNL     1       1.278   7.142  -9.554  0.00  0.00    -0.246 OA
ATOM     12  O   UNL     1       2.296   8.288  -7.814  0.00  0.00    -0.246 OA
ENDBRANCH   9  10
ENDBRANCH   8   9
ENDBRANCH   7   8
ENDBRANCH   6   7
ENDBRANCH   4   5
ENDBRANCH   3   4
ENDBRANCH   1   2
BRANCH   1  14
ATOM     13  C   UNL     1      -0.985   6.522   0.003  0.00  0.00    -0.026 C 
ATOM     14  C   UNL     1      -1.788   7.526  -0.370  0.00  0.00    -0.026 C 
BRANCH  13  15
ATOM     15  C   UNL     1       0.311   6.450  -0.750  0.00  0.00    +0.051 C 
BRANCH  15  17
ATOM     16  C   UNL     1       0.518   5.079  -2.707  0.00  0.00    -0.026 C 
ATOM     17  C   UNL     1       0.335   5.089  -1.380  0.00  0.00    -0.026 C 
BRANCH  16  18
ATOM     18  C   UNL     1       1.516   6.076  -3.214  0.00  0.00    +0.051 C 
BRANCH  18  20
ATOM     19  C   UNL     1       3.890   5.743  -3.327  0.00  0.00    -0.030 C 
ATOM     20  C   UNL     1       2.698   5.407  -3.830  0.00  0.00    -0.026 C 
BRANCH  19  22
ATOM     21  C   UNL     1       4.077   4.682  -1.125  0.00  0.00    +0.005 C 
ATOM     22  C   UNL     1       3.985   5.993  -1.856  0.00  0.00    +0.026 C 
ENDBRANCH  19  22
ENDBRANCH  18  20
ENDBRANCH  16  18
ENDBRANCH  15  17
ENDBRANCH  13  15
ENDBRANCH   1  14
TORSDOF 13
ENDMDL
MODEL 8
REMARK VINA RESULT:      -6.0      3.138      5.875
REMARK  Name = 
REMARK  13 active torsions:
REMARK  status: ('A' for Active; 'I' for Inactive)
REMARK    1  A    between atoms: C_2  and  C_3
REMARK    2  A    between atoms: C_4  and  C_5
REMARK    3  A    between atoms: C_5  and  C_6
REMARK    4  A    between atoms: C_7  and  C_8
REMARK    5  A    between atoms: C_8  and  C_9
REMARK    6  A    between atoms: C_10  and  C_11
REMARK    7  A    between atoms: C_11  and  C_12
REMARK    8  A    between atoms: C_13  and  C_14
REMARK    9  A    between atoms: C_14  and  C_15
REMARK   10  A    between atoms: C_16  and  C_17
REMARK   11  A    between atoms: C_17  and  C_18
REMARK   12  A    between atoms: C_18  and  C_19
REMARK   13  A    between atoms: C_19  and  C_20
REMARK                            x       y       z     vdW  Elec       q    Type
REMARK                         _______ _______ _______ _____ _____    ______ ____
ROOT
ATOM      1  C   UNL     1       0.037   5.869  -6.427  0.00  0.00    +0.051 C 
ENDROOT
BRANCH   1   2
ATOM      2  C   UNL     1      -1.233   5.344  -6.970  0.00  0.00    -0.026 C 
ATOM      3  C   UNL     1      -2.358   5.729  -6.377  0.00  0.00    -0.026 C 
BRANCH   3   4
ATOM      4  C   UNL     1      -2.440   6.304  -5.023  0.00  0.00    +0.051 C 
BRANCH   4   5
ATOM      5  C   UNL     1      -2.604   5.308  -3.953  0.00  0.00    -0.026 C 
ATOM      6  C   UNL     1      -3.033   5.547  -2.732  0.00  0.00    -0.030 C 
BRANCH   6   7
ATOM      7  C   UNL     1      -3.030   6.970  -2.282  0.00  0.00    +0.026 C 
BRANCH   7   8
ATOM      8  C   UNL     1      -1.769   7.294  -1.517  0.00  0.00    +0.016 C 
BRANCH   8   9
ATOM      9  C   UNL     1      -1.696   6.581  -0.195  0.00  0.00    +0.114 C 
BRANCH   9  10
ATOM     10  C   UNL     1      -1.591   7.574   0.913  0.00  0.00    +0.365 C 
ATOM     11  O   UNL     1      -1.557   8.926   0.569  0.00  0.00    -0.246 OA
ATOM     12  O   UNL     1      -1.119   7.165   2.012  0.00  0.00    -0.246 OA
ENDBRANCH   9  10
ENDBRANCH   8   9
ENDBRANCH   7   8
ENDBRANCH   6   7
ENDBRANCH   4   5
ENDBRANCH   3   4
ENDBRANCH   1   2
BRANCH   1  14
ATOM     13  C   UNL     1       1.805   5.143  -4.995  0.00  0.00    -0.026 C 
ATOM     14  C   UNL     1       0.858   4.750  -5.857  0.00  0.00    -0.026 C 
BRANCH  13  15
ATOM     15  C   UNL     1       1.321   6.079  -3.926  0.00  0.00    +0.051 C 
BRANCH  15  17
ATOM     16  C   UNL     1       1.504   5.229  -1.690  0.00  0.00    -0.026 C 
ATOM     17  C   UNL     1       0.798   5.199  -2.829  0.00  0.00    -0.026 C 
BRANCH  16  18
ATOM     18  C   UNL     1       2.000   6.585  -1.291  0.00  0.00    +0.051 C 
BRANCH  18  20
ATOM     19  C   UNL     1       4.357   6.900  -1.610  0.00  0.00    -0.030 C 
ATOM     20  C   UNL     1       3.393   6.528  -0.762  0.00  0.00    -0.026 C 
BRANCH  19  22
ATOM     21  C   UNL     1       4.716   7.761  -3.877  0.00  0.00    +0.005 C 
ATOM     22  C   UNL     1       4.070   8.030  -2.547  0.00  0.00    +0.026 C 
ENDBRANCH  19  22
ENDBRANCH  18  20
ENDBRANCH  16  18
ENDBRANCH  15  17
ENDBRANCH  13  15
ENDBRANCH   1  14
TORSDOF 13
ENDMDL
MODEL 9
REMARK VINA RESULT:      -5.9      4.820      8.907
REMARK  Name = 
REMARK  13 active torsions:
REMARK  status: ('A' for Active; 'I' for Inactive)
REMARK    1  A    between atoms: C_2  and  C_3
REMARK    2  A    between atoms: C_4  and  C_5
REMARK    3  A    between atoms: C_5  and  C_6
REMARK    4  A    between atoms: C_7  and  C_8
REMARK    5  A    between atoms: C_8  and  C_9
REMARK    6  A    between atoms: C_10  and  C_11
REMARK    7  A    between atoms: C_11  and  C_12
REMARK    8  A    between atoms: C_13  and  C_14
REMARK    9  A    between atoms: C_14  and  C_15
REMARK   10  A    between atoms: C_16  and  C_17
REMARK   11  A    between atoms: C_17  and  C_18
REMARK   12  A    between atoms: C_18  and  C_19
REMARK   13  A    between atoms: C_19  and  C_20
REMARK                            x       y       z     vdW  Elec       q    Type
REMARK                         _______ _______ _______ _____ _____    ______ ____
ROOT
ATOM      1  C   UNL     1       1.254   5.911  -7.082  0.00  0.00    +0.051 C 
ENDROOT
BRANCH   1   2
ATOM      2  C   UNL     1       1.644   7.297  -7.407  0.00  0.00    -0.026 C 
ATOM      3  C   UNL     1       2.634   7.468  -8.277  0.00  0.00    -0.026 C 
BRANCH   3   4
ATOM      4  C   UNL     1       3.617   6.434  -8.643  0.00  0.00    +0.051 C 
BRANCH   4   5
ATOM      5  C   UNL     1       3.526   5.983 -10.041  0.00  0.00    -0.026 C 
ATOM      6  C   UNL     1       4.351   6.307 -11.013  0.00  0.00    -0.030 C 
BRANCH   6   7
ATOM      7  C   UNL     1       5.243   7.480 -10.780  0.00  0.00    +0.026 C 
BRANCH   7   8
ATOM      8  C   UNL     1       6.476   7.404 -11.649  0.00  0.00    +0.016 C 
BRANCH   8   9
ATOM      9  C   UNL     1       7.568   6.575 -11.031  0.00  0.00    +0.114 C 
BRANCH   9  10
ATOM     10  C   UNL     1       8.247   5.762 -12.082  0.00  0.00    +0.365 C 
ATOM     11  O   UNL     1       7.563   4.654 -12.583  0.00  0.00    -0.246 OA
ATOM     12  O   UNL     1       9.506   5.841 -12.150  0.00  0.00    -0.246 OA
ENDBRANCH   9  10
ENDBRANCH   8   9
ENDBRANCH   7   8
ENDBRANCH   6   7
ENDBRANCH   4   5
ENDBRANCH   3   4
ENDBRANCH   1   2
BRANCH   1  14
ATOM     13  C   UNL     1      -0.942   4.992  -6.884  0.00  0.00    -0.026 C 
ATOM     14  C   UNL     1      -0.069   5.584  -7.710  0.00  0.00    -0.026 C 
BRANCH  13  15
ATOM     15  C   UNL     1      -1.109   5.681  -5.561  0.00  0.00    +0.051 C 
BRANCH  15  17
ATOM     16  C   UNL     1      -2.801   7.099  -4.625  0.00  0.00    -0.026 C 
ATOM     17  C   UNL     1      -2.232   6.656  -5.754  0.00  0.00    -0.026 C 
BRANCH  16  18
ATOM     18  C   UNL     1      -1.847   7.381  -3.505  0.00  0.00    +0.051 C 
BRANCH  18  20
ATOM     19  C   UNL     1      -2.042   5.894  -1.632  0.00  0.00    -0.030 C 
ATOM     20  C   UNL     1      -2.441   7.047  -2.179  0.00  0.00    -0.026 C 
BRANCH  19  22
ATOM     21  C   UNL     1       0.220   6.027  -0.697  0.00  0.00    +0.005 C 
ATOM     22  C   UNL     1      -0.617   5.484  -1.821  0.00  0.00    +0.026 C 
ENDBRANCH  19  22
ENDBRANCH  18  20
ENDBRANCH  16  18
ENDBRANCH  15  17
ENDBRANCH  13  15
ENDBRANCH   1  14
TORSDOF 13
ENDMDL
