MODEL 1
REMARK VINA RESULT:      -6.3      0.000      0.000
REMARK  Name = 
REMARK  7 active torsions:
REMARK  status: ('A' for Active; 'I' for Inactive)
REMARK    1  A    between atoms: C_2  and  N_3
REMARK    2  A    between atoms: N_3  and  C_4
REMARK    3  A    between atoms: N_3  and  C_6
REMARK    4  A    between atoms: C_6  and  C_7
REMARK    5  A    between atoms: C_7  and  N_8
REMARK    6  A    between atoms: C_9  and  C_11
REMARK    7  A    between atoms: C_18  and  O_19
REMARK                            x       y       z     vdW  Elec       q    Type
REMARK                         _______ _______ _______ _____ _____    ______ ____
ROOT
ATOM      1  N   UNL     1       1.160   5.362  -8.569  0.00  0.00    -0.200 NA
ATOM      2  C   UNL     1       2.090   6.401  -8.784  0.00  0.00    +0.268 C 
ATOM      3  O   UNL     1       1.785   7.545  -8.340  0.00  0.00    -0.268 OA
ENDROOT
BRANCH   2   4
ATOM      4  C   UNL     1       3.492   6.131  -9.089  0.00  0.00    +0.090 A 
ATOM      5  C   UNL     1       4.309   5.401  -8.237  0.00  0.00    +0.144 A 
ATOM      6  C   UNL     1       5.653   5.250  -8.556  0.00  0.00    +0.056 A 
ATOM      7  C   UNL     1       6.209   5.793  -9.702  0.00  0.00    +0.103 A 
ATOM      8  N   UNL     1       7.606   5.806  -9.952  0.00  0.00    -0.127 NA
ATOM      9  C   UNL     1       5.441   6.721 -10.386  0.00  0.00    +0.075 A 
ATOM     10 CL   UNL     1       6.193   8.024 -11.303  0.00  0.00    -0.081 Cl
ATOM     11  C   UNL     1       4.063   6.673 -10.217  0.00  0.00    +0.020 A 
BRANCH   5  12
ATOM     12  O   UNL     1       3.922   5.261  -6.901  0.00  0.00    -0.471 OA
ATOM     13  C   UNL     1       4.496   6.123  -5.925  0.00  0.00    +0.252 C 
ENDBRANCH   5  12
ENDBRANCH   2   4
BRANCH   1  14
ATOM     14  C   UNL     1      -0.180   5.660  -8.076  0.00  0.00    +0.133 C 
BRANCH  14  15
ATOM     15  C   UNL     1      -0.313   5.338  -6.615  0.00  0.00    +0.096 C 
BRANCH  15  16
ATOM     16  N   UNL     1      -0.443   6.501  -5.778  0.00  0.00    -0.271 NA
BRANCH  16  18
ATOM     17  C   UNL     1       1.154   5.051  -4.682  0.00  0.00    +0.019 C 
ATOM     18  C   UNL     1       0.503   6.406  -4.695  0.00  0.00    +0.072 C 
ENDBRANCH  16  18
BRANCH  16  19
ATOM     19  C   UNL     1      -1.778   6.707  -5.278  0.00  0.00    +0.072 C 
ATOM     20  C   UNL     1      -1.864   8.055  -4.607  0.00  0.00    +0.019 C 
ENDBRANCH  16  19
ENDBRANCH  15  16
ENDBRANCH  14  15
ENDBRANCH   1  14
TORSDOF 7
ENDMDL
MODEL 2
REMARK VINA RESULT:      -6.2      2.712      6.723
REMARK  Name = 
REMARK  7 active torsions:
REMARK  status: ('A' for Active; 'I' for Inactive)
REMARK    1  A    between atoms: C_2  and  N_3
REMARK    2  A    between atoms: N_3  and  C_4
REMARK    3  A    between atoms: N_3  and  C_6
REMARK    4  A    between atoms: C_6  and  C_7
REMARK    5  A    between atoms: C_7  and  N_8
REMARK    6  A    between atoms: C_9  and  C_11
REMARK    7  A    between atoms: C_18  and  O_19
REMARK                            x       y       z     vdW  Elec       q    Type
REMARK                         _______ _______ _______ _____ _____    ______ ____
ROOT
ATOM      1  N   UNL     1       3.871   6.626  -9.429  0.00  0.00    -0.200 NA
ATOM      2  C   UNL     1       3.710   5.382  -8.783  0.00  0.00    +0.268 C 
ATOM      3  O   UNL     1       4.063   4.351  -9.427  0.00  0.00    -0.268 OA
ENDROOT
BRANCH   2   4
ATOM      4  C   UNL     1       3.572   5.276  -7.333  0.00  0.00    +0.090 A 
ATOM      5  C   UNL     1       2.418   4.797  -6.731  0.00  0.00    +0.144 A 
ATOM      6  C   UNL     1       2.329   4.798  -5.345  0.00  0.00    +0.056 A 
ATOM      7  C   UNL     1       3.358   5.251  -4.536  0.00  0.00    +0.103 A 
ATOM      8  N   UNL     1       3.219   5.430  -3.135  0.00  0.00    -0.127 NA
ATOM      9  C   UNL     1       4.376   5.954  -5.160  0.00  0.00    +0.075 A 
ATOM     10 CL   UNL     1       5.268   7.211  -4.306  0.00  0.00    -0.081 Cl
ATOM     11  C   UNL     1       4.580   5.732  -6.516  0.00  0.00    +0.020 A 
BRANCH   5  12
ATOM     12  O   UNL     1       1.233   4.792  -7.474  0.00  0.00    -0.471 OA
ATOM     13  C   UNL     1       0.171   5.653  -7.082  0.00  0.00    +0.252 C 
ENDBRANCH   5  12
ENDBRANCH   2   4
BRANCH   1  14
ATOM     14  C   UNL     1       4.201   6.685 -10.848  0.00  0.00    +0.133 C 
BRANCH  14  15
ATOM     15  C   UNL     1       5.529   7.347 -11.078  0.00  0.00    +0.096 C 
BRANCH  15  16
ATOM     16  N   UNL     1       6.605   6.418 -11.299  0.00  0.00    -0.271 NA
BRANCH  16  18
ATOM     17  C   UNL     1       7.413   5.614  -9.165  0.00  0.00    +0.019 C 
ATOM     18  C   UNL     1       7.604   6.606 -10.278  0.00  0.00    +0.072 C 
ENDBRANCH  16  18
BRANCH  16  19
ATOM     19  C   UNL     1       7.189   6.511 -12.613  0.00  0.00    +0.072 C 
ATOM     20  C   UNL     1       8.583   5.935 -12.589  0.00  0.00    +0.019 C 
ENDBRANCH  16  19
ENDBRANCH  15  16
ENDBRANCH  14  15
ENDBRANCH   1  14
TORSDOF 7
ENDMDL
MODEL 3
REMARK VINA RESULT:      -6.2      1.824      2.819
REMARK  Name = 
REMARK  7 active torsions:
REMARK  status: ('A' for Active; 'I' for Inactive)
REMARK    1  A    between atoms: C_2  and  N_3
REMARK    2  A    between atoms: N_3  and  C_4
REMARK    3  A    between atoms: N_3  and  C_6
REMARK    4  A    between atoms: C_6  and  C_7
REMARK    5  A    between atoms: C_7  and  N_8
REMARK    6  A    between atoms: C_9  and  C_11
REMARK    7  A    between atoms: C_18  and  O_19
REMARK                            x       y       z     vdW  Elec       q    Type
REMARK                         _______ _______ _______ _____ _____    ______ ____
ROOT
ATOM      1  N   UNL     1       2.667   5.040  -7.022  0.00  0.00    -0.200 NA
ATOM      2  C   UNL     1       3.349   4.581  -8.169  0.00  0.00    +0.268 C 
ATOM      3  O   UNL     1       2.916   3.522  -8.708  0.00  0.00    -0.268 OA
ENDROOT
BRANCH   2   4
ATOM      4  C   UNL     1       4.203   5.461  -8.963  0.00  0.00    +0.090 A 
ATOM      5  C   UNL     1       3.690   6.338  -9.907  0.00  0.00    +0.144 A 
ATOM      6  C   UNL     1       4.569   7.087 -10.679  0.00  0.00    +0.056 A 
ATOM      7  C   UNL     1       5.943   7.000 -10.534  0.00  0.00    +0.103 A 
ATOM      8  N   UNL     1       6.856   7.616 -11.430  0.00  0.00    -0.127 NA
ATOM      9  C   UNL     1       6.423   5.943  -9.780  0.00  0.00    +0.075 A 
ATOM     10 CL   UNL     1       7.998   5.226 -10.116  0.00  0.00    -0.081 Cl
ATOM     11  C   UNL     1       5.571   5.378  -8.839  0.00  0.00    +0.020 A 
BRANCH   5  12
ATOM     12  O   UNL     1       2.401   6.108 -10.399  0.00  0.00    -0.471 OA
ATOM     13  C   UNL     1       2.177   6.183 -11.802  0.00  0.00    +0.252 C 
ENDBRANCH   5  12
ENDBRANCH   2   4
BRANCH   1  14
ATOM     14  C   UNL     1       1.673   4.198  -6.367  0.00  0.00    +0.133 C 
BRANCH  14  15
ATOM     15  C   UNL     1       1.066   4.885  -5.177  0.00  0.00    +0.096 C 
BRANCH  15  16
ATOM     16  N   UNL     1      -0.056   5.722  -5.506  0.00  0.00    -0.271 NA
BRANCH  16  18
ATOM     17  C   UNL     1      -0.116   5.412  -3.107  0.00  0.00    +0.019 C 
ATOM     18  C   UNL     1      -0.826   5.963  -4.312  0.00  0.00    +0.072 C 
ENDBRANCH  16  18
BRANCH  16  19
ATOM     19  C   UNL     1      -0.888   5.190  -6.555  0.00  0.00    +0.072 C 
ATOM     20  C   UNL     1      -2.304   5.674  -6.372  0.00  0.00    +0.019 C 
ENDBRANCH  16  19
ENDBRANCH  15  16
ENDBRANCH  14  15
ENDBRANCH   1  14
TORSDOF 7
ENDMDL
MODEL 4
REMARK VINA RESULT:      -6.2      2.639      3.641
REMARK  Name = 
REMARK  7 active torsions:
REMARK  status: ('A' for Active; 'I' for Inactive)
REMARK    1  A    between atoms: C_2  and  N_3
REMARK    2  A    between atoms: N_3  and  C_4
REMARK    3  A    between atoms: N_3  and  C_6
REMARK    4  A    between atoms: C_6  and  C_7
REMARK    5  A    between atoms: C_7  and  N_8
REMARK    6  A    between atoms: C_9  and  C_11
REMARK    7  A    between atoms: C_18  and  O_19
REMARK                            x       y       z     vdW  Elec       q    Type
REMARK                         _______ _______ _______ _____ _____    ______ ____
ROOT
ATOM      1  N   UNL     1       1.324   6.097  -5.643  0.00  0.00    -0.200 NA
ATOM      2  C   UNL     1       1.490   4.968  -6.473  0.00  0.00    +0.268 C 
ATOM      3  O   UNL     1       1.093   3.857  -6.016  0.00  0.00    -0.268 OA
ENDROOT
BRANCH   2   4
ATOM      4  C   UNL     1       1.686   5.090  -7.915  0.00  0.00    +0.090 A 
ATOM      5  C   UNL     1       2.935   4.966  -8.506  0.00  0.00    +0.144 A 
ATOM      6  C   UNL     1       3.058   5.172  -9.874  0.00  0.00    +0.056 A 
ATOM      7  C   UNL     1       1.974   5.488 -10.676  0.00  0.00    +0.103 A 
ATOM      8  N   UNL     1       2.105   5.879 -12.034  0.00  0.00    -0.127 NA
ATOM      9  C   UNL     1       0.807   5.857 -10.028  0.00  0.00    +0.075 A 
ATOM     10 CL   UNL     1      -0.326   6.986 -10.767  0.00  0.00    -0.081 Cl
ATOM     11  C   UNL     1       0.623   5.416  -8.724  0.00  0.00    +0.020 A 
BRANCH   5  12
ATOM     12  O   UNL     1       4.070   5.125  -7.704  0.00  0.00    -0.471 OA
ATOM     13  C   UNL     1       5.345   5.216  -8.327  0.00  0.00    +0.252 C 
ENDBRANCH   5  12
ENDBRANCH   2   4
BRANCH   1  14
ATOM     14  C   UNL     1       0.936   5.937  -4.247  0.00  0.00    +0.133 C 
BRANCH  14  15
ATOM     15  C   UNL     1      -0.395   6.576  -3.968  0.00  0.00    +0.096 C 
BRANCH  15  16
ATOM     16  N   UNL     1      -1.513   5.694  -4.178  0.00  0.00    -0.271 NA
BRANCH  16  18
ATOM     17  C   UNL     1      -2.294   5.557  -6.464  0.00  0.00    +0.019 C 
ATOM     18  C   UNL     1      -2.397   6.283  -5.152  0.00  0.00    +0.072 C 
ENDBRANCH  16  18
BRANCH  16  19
ATOM     19  C   UNL     1      -2.224   5.365  -2.970  0.00  0.00    +0.072 C 
ATOM     20  C   UNL     1      -3.440   6.249  -2.842  0.00  0.00    +0.019 C 
ENDBRANCH  16  19
ENDBRANCH  15  16
ENDBRANCH  14  15
ENDBRANCH   1  14
TORSDOF 7
ENDMDL
MODEL 5
REMARK VINA RESULT:      -6.1      2.893      7.201
REMARK  Name = 
REMARK  7 active torsions:
REMARK  status: ('A' for Active; 'I' for Inactive)
REMARK    1  A    between atoms: C_2  and  N_3
REMARK    2  A    between atoms: N_3  and  C_4
REMARK    3  A    between atoms: N_3  and  C_6
REMARK    4  A    between atoms: C_6  and  C_7
REMARK    5  A    between atoms: C_7  and  N_8
REMARK    6  A    between atoms: C_9  and  C_11
REMARK    7  A    between atoms: C_18  and  O_19
REMARK                            x       y       z     vdW  Elec       q    Type
REMARK                         _______ _______ _______ _____ _____    ______ ____
ROOT
ATOM      1  N   UNL     1       3.569   5.588  -8.546  0.00  0.00    -0.200 NA
ATOM      2  C   UNL     1       2.505   4.771  -8.110  0.00  0.00    +0.268 C 
ATOM      3  O   UNL     1       2.538   3.554  -8.454  0.00  0.00    -0.268 OA
ENDROOT
BRANCH   2   4
ATOM      4  C   UNL     1       1.654   5.148  -6.985  0.00  0.00    +0.090 A 
ATOM      5  C   UNL     1       2.079   5.050  -5.668  0.00  0.00    +0.144 A 
ATOM      6  C   UNL     1       1.187   5.352  -4.646  0.00  0.00    +0.056 A 
ATOM      7  C   UNL     1      -0.113   5.760  -4.893  0.00  0.00    +0.103 A 
ATOM      8  N   UNL     1      -1.088   5.896  -3.871  0.00  0.00    -0.127 NA
ATOM      9  C   UNL     1      -0.580   5.598  -6.187  0.00  0.00    +0.075 A 
ATOM     10 CL   UNL     1      -2.287   5.300  -6.508  0.00  0.00    -0.081 Cl
ATOM     11  C   UNL     1       0.356   5.543  -7.212  0.00  0.00    +0.020 A 
BRANCH   5  12
ATOM     12  O   UNL     1       3.165   4.217  -5.379  0.00  0.00    -0.471 OA
ATOM     13  C   UNL     1       4.214   4.715  -4.557  0.00  0.00    +0.252 C 
ENDBRANCH   5  12
ENDBRANCH   2   4
BRANCH   1  14
ATOM     14  C   UNL     1       4.519   5.098  -9.538  0.00  0.00    +0.133 C 
BRANCH  14  15
ATOM     15  C   UNL     1       5.153   6.227 -10.300  0.00  0.00    +0.096 C 
BRANCH  15  16
ATOM     16  N   UNL     1       6.516   5.970 -10.681  0.00  0.00    -0.271 NA
BRANCH  16  18
ATOM     17  C   UNL     1       6.453   8.303 -11.320  0.00  0.00    +0.019 C 
ATOM     18  C   UNL     1       7.249   7.211 -10.662  0.00  0.00    +0.072 C 
ENDBRANCH  16  18
BRANCH  16  19
ATOM     19  C   UNL     1       6.646   5.316 -11.958  0.00  0.00    +0.072 C 
ATOM     20  C   UNL     1       8.096   5.298 -12.372  0.00  0.00    +0.019 C 
ENDBRANCH  16  19
ENDBRANCH  15  16
ENDBRANCH  14  15
ENDBRANCH   1  14
TORSDOF 7
ENDMDL
MODEL 6
REMARK VINA RESULT:      -6.0      1.945      3.131
REMARK  Name = 
REMARK  7 active torsions:
REMARK  status: ('A' for Active; 'I' for Inactive)
REMARK    1  A    between atoms: C_2  and  N_3
REMARK    2  A    between atoms: N_3  and  C_4
REMARK    3  A    between atoms: N_3  and  C_6
REMARK    4  A    between atoms: C_6  and  C_7
REMARK    5  A    between atoms: C_7  and  N_8
REMARK    6  A    between atoms: C_9  and  C_11
REMARK    7  A    between atoms: C_18  and  O_19
REMARK                            x       y       z     vdW  Elec       q    Type
REMARK                         _______ _______ _______ _____ _____    ______ ____
ROOT
ATOM      1  N   UNL     1       2.237   6.113  -7.087  0.00  0.00    -0.200 NA
ATOM      2  C   UNL     1       2.204   7.048  -8.142  0.00  0.00    +0.268 C 
ATOM      3  O   UNL     1       2.078   8.266  -7.825  0.00  0.00    -0.268 OA
ENDROOT
BRANCH   2   4
ATOM      4  C   UNL     1       2.716   6.730  -9.472  0.00  0.00    +0.090 A 
ATOM      5  C   UNL     1       1.896   6.270 -10.492  0.00  0.00    +0.144 A 
ATOM      6  C   UNL     1       2.465   5.914 -11.707  0.00  0.00    +0.056 A 
ATOM      7  C   UNL     1       3.826   6.012 -11.946  0.00  0.00    +0.103 A 
ATOM      8  N   UNL     1       4.447   5.486 -13.109  0.00  0.00    -0.127 NA
ATOM      9  C   UNL     1       4.637   6.222 -10.843  0.00  0.00    +0.075 A 
ATOM     10 CL   UNL     1       6.289   5.610 -10.799  0.00  0.00    -0.081 Cl
ATOM     11  C   UNL     1       4.066   6.811  -9.722  0.00  0.00    +0.020 A 
BRANCH   5  12
ATOM     12  O   UNL     1       0.655   5.721 -10.151  0.00  0.00    -0.471 OA
ATOM     13  C   UNL     1       0.283   4.466 -10.707  0.00  0.00    +0.252 C 
ENDBRANCH   5  12
ENDBRANCH   2   4
BRANCH   1  14
ATOM     14  C   UNL     1       1.902   6.520  -5.727  0.00  0.00    +0.133 C 
BRANCH  14  15
ATOM     15  C   UNL     1       0.657   5.836  -5.238  0.00  0.00    +0.096 C 
BRANCH  15  16
ATOM     16  N   UNL     1      -0.541   6.608  -5.439  0.00  0.00    -0.271 NA
BRANCH  16  18
ATOM     17  C   UNL     1      -1.939   8.311  -4.439  0.00  0.00    +0.019 C 
ATOM     18  C   UNL     1      -0.889   7.262  -4.202  0.00  0.00    +0.072 C 
ENDBRANCH  16  18
BRANCH  16  19
ATOM     19  C   UNL     1      -1.649   5.837  -5.942  0.00  0.00    +0.072 C 
ATOM     20  C   UNL     1      -1.224   5.091  -7.182  0.00  0.00    +0.019 C 
ENDBRANCH  16  19
ENDBRANCH  15  16
ENDBRANCH  14  15
ENDBRANCH   1  14
TORSDOF 7
ENDMDL
MODEL 7
REMARK VINA RESULT:      -5.9      2.984      6.645
REMARK  Name = 
REMARK  7 active torsions:
REMARK  status: ('A' for Active; 'I' for Inactive)
REMARK    1  A    between atoms: C_2  and  N_3
REMARK    2  A    between atoms: N_3  and  C_4
REMARK    3  A    between atoms: N_3  and  C_6
REMARK    4  A    between atoms: C_6  and  C_7
REMARK    5  A    between atoms: C_7  and  N_8
REMARK    6  A    between atoms: C_9  and  C_11
REMARK    7  A    between atoms: C_18  and  O_19
REMARK                            x       y       z     vdW  Elec       q    Type
REMARK                         _______ _______ _______ _____ _____    ______ ____
ROOT
ATOM      1  N   UNL     1       1.717   6.059  -8.383  0.00  0.00    -0.200 NA
ATOM      2  C   UNL     1       1.936   6.780  -7.191  0.00  0.00    +0.268 C 
ATOM      3  O   UNL     1       2.380   7.959  -7.306  0.00  0.00    -0.268 OA
ENDROOT
BRANCH   2   4
ATOM      4  C   UNL     1       1.299   6.403  -5.932  0.00  0.00    +0.090 A 
ATOM      5  C   UNL     1       1.970   5.693  -4.946  0.00  0.00    +0.144 A 
ATOM      6  C   UNL     1       1.277   5.302  -3.807  0.00  0.00    +0.056 A 
ATOM      7  C   UNL     1      -0.061   5.603  -3.613  0.00  0.00    +0.103 A 
ATOM      8  N   UNL     1      -0.830   5.060  -2.550  0.00  0.00    -0.127 NA
ATOM      9  C   UNL     1      -0.758   6.075  -4.712  0.00  0.00    +0.075 A 
ATOM     10 CL   UNL     1      -2.483   5.765  -4.899  0.00  0.00    -0.081 Cl
ATOM     11  C   UNL     1      -0.032   6.684  -5.728  0.00  0.00    +0.020 A 
BRANCH   5  12
ATOM     12  O   UNL     1       3.120   4.984  -5.302  0.00  0.00    -0.471 OA
ATOM     13  C   UNL     1       4.076   4.672  -4.295  0.00  0.00    +0.252 C 
ENDBRANCH   5  12
ENDBRANCH   2   4
BRANCH   1  14
ATOM     14  C   UNL     1       2.207   6.571  -9.657  0.00  0.00    +0.133 C 
BRANCH  14  15
ATOM     15  C   UNL     1       3.326   5.727 -10.198  0.00  0.00    +0.096 C 
BRANCH  15  16
ATOM     16  N   UNL     1       4.621   6.342 -10.080  0.00  0.00    -0.271 NA
BRANCH  16  18
ATOM     17  C   UNL     1       6.102   7.849 -11.259  0.00  0.00    +0.019 C 
ATOM     18  C   UNL     1       5.050   6.783 -11.384  0.00  0.00    +0.072 C 
ENDBRANCH  16  18
BRANCH  16  19
ATOM     19  C   UNL     1       5.612   5.492  -9.473  0.00  0.00    +0.072 C 
ATOM     20  C   UNL     1       5.299   5.317  -8.008  0.00  0.00    +0.019 C 
ENDBRANCH  16  19
ENDBRANCH  15  16
ENDBRANCH  14  15
ENDBRANCH   1  14
TORSDOF 7
ENDMDL
MODEL 8
REMARK VINA RESULT:      -5.8      2.870      3.986
REMARK  Name = 
REMARK  7 active torsions:
REMARK  status: ('A' for Active; 'I' for Inactive)
REMARK    1  A    between atoms: C_2  and  N_3
REMARK    2  A    between atoms: N_3  and  C_4
REMARK    3  A    between atoms: N_3  and  C_6
REMARK    4  A    between atoms: C_6  and  C_7
REMARK    5  A    between atoms: C_7  and  N_8
REMARK    6  A    between atoms: C_9  and  C_11
REMARK    7  A    between atoms: C_18  and  O_19
REMARK                            x       y       z     vdW  Elec       q    Type
REMARK                         _______ _______ _______ _____ _____    ______ ____
ROOT
ATOM      1  N   UNL     1       2.152   5.526  -7.647  0.00  0.00    -0.200 NA
ATOM      2  C   UNL     1       2.388   4.794  -8.830  0.00  0.00    +0.268 C 
ATOM      3  O   UNL     1       2.516   3.541  -8.714  0.00  0.00    -0.268 OA
ENDROOT
BRANCH   2   4
ATOM      4  C   UNL     1       2.074   5.337 -10.149  0.00  0.00    +0.090 A 
ATOM      5  C   UNL     1       3.054   5.589 -11.099  0.00  0.00    +0.144 A 
ATOM      6  C   UNL     1       2.690   6.178 -12.303  0.00  0.00    +0.056 A 
ATOM      7  C   UNL     1       1.379   6.514 -12.599  0.00  0.00    +0.103 A 
ATOM      8  N   UNL     1       1.014   7.277 -13.739  0.00  0.00    -0.127 NA
ATOM      9  C   UNL     1       0.479   6.492 -11.546  0.00  0.00    +0.075 A 
ATOM     10 CL   UNL     1      -0.912   7.573 -11.515  0.00  0.00    -0.081 Cl
ATOM     11  C   UNL     1       0.779   5.687 -10.454  0.00  0.00    +0.020 A 
BRANCH   5  12
ATOM     12  O   UNL     1       4.379   5.711 -10.672  0.00  0.00    -0.471 OA
ATOM     13  C   UNL     1       5.426   5.529 -11.617  0.00  0.00    +0.252 C 
ENDBRANCH   5  12
ENDBRANCH   2   4
BRANCH   1  14
ATOM     14  C   UNL     1       2.291   4.888  -6.344  0.00  0.00    +0.133 C 
BRANCH  14  15
ATOM     15  C   UNL     1       0.953   4.620  -5.716  0.00  0.00    +0.096 C 
BRANCH  15  16
ATOM     16  N   UNL     1      -0.030   5.631  -6.001  0.00  0.00    -0.271 NA
BRANCH  16  18
ATOM     17  C   UNL     1       0.057   5.437  -3.591  0.00  0.00    +0.019 C 
ATOM     18  C   UNL     1      -0.465   6.224  -4.761  0.00  0.00    +0.072 C 
ENDBRANCH  16  18
BRANCH  16  19
ATOM     19  C   UNL     1      -1.154   5.148  -6.761  0.00  0.00    +0.072 C 
ATOM     20  C   UNL     1      -2.411   5.843  -6.303  0.00  0.00    +0.019 C 
ENDBRANCH  16  19
ENDBRANCH  15  16
ENDBRANCH  14  15
ENDBRANCH   1  14
TORSDOF 7
ENDMDL
MODEL 9
REMARK VINA RESULT:      -5.8      2.319      3.670
REMARK  Name = 
REMARK  7 active torsions:
REMARK  status: ('A' for Active; 'I' for Inactive)
REMARK    1  A    between atoms: C_2  and  N_3
REMARK    2  A    between atoms: N_3  and  C_4
REMARK    3  A    between atoms: N_3  and  C_6
REMARK    4  A    between atoms: C_6  and  C_7
REMARK    5  A    between atoms: C_7  and  N_8
REMARK    6  A    between atoms: C_9  and  C_11
REMARK    7  A    between atoms: C_18  and  O_19
REMARK                            x       y       z     vdW  Elec       q    Type
REMARK                         _______ _______ _______ _____ _____    ______ ____
ROOT
ATOM      1  N   UNL     1       1.508   6.130  -7.198  0.00  0.00    -0.200 NA
ATOM      2  C   UNL     1       1.913   7.106  -8.133  0.00  0.00    +0.268 C 
ATOM      3  O   UNL     1       2.077   8.283  -7.699  0.00  0.00    -0.268 OA
ENDROOT
BRANCH   2   4
ATOM      4  C   UNL     1       2.534   6.747  -9.405  0.00  0.00    +0.090 A 
ATOM      5  C   UNL     1       1.801   6.243 -10.470  0.00  0.00    +0.144 A 
ATOM      6  C   UNL     1       2.470   5.850 -11.622  0.00  0.00    +0.056 A 
ATOM      7  C   UNL     1       3.845   5.952 -11.753  0.00  0.00    +0.103 A 
ATOM      8  N   UNL     1       4.562   5.391 -12.842  0.00  0.00    -0.127 NA
ATOM      9  C   UNL     1       4.563   6.208 -10.597  0.00  0.00    +0.075 A 
ATOM     10 CL   UNL     1       6.210   5.613 -10.397  0.00  0.00    -0.081 Cl
ATOM     11  C   UNL     1       3.899   6.830  -9.547  0.00  0.00    +0.020 A 
BRANCH   5  12
ATOM     12  O   UNL     1       0.541   5.696 -10.212  0.00  0.00    -0.471 OA
ATOM     13  C   UNL     1       0.024   4.712 -11.100  0.00  0.00    +0.252 C 
ENDBRANCH   5  12
ENDBRANCH   2   4
BRANCH   1  14
ATOM     14  C   UNL     1       1.075   6.522  -5.862  0.00  0.00    +0.133 C 
BRANCH  14  15
ATOM     15  C   UNL     1       2.056   6.083  -4.813  0.00  0.00    +0.096 C 
BRANCH  15  16
ATOM     16  N   UNL     1       2.848   7.159  -4.279  0.00  0.00    -0.271 NA
BRANCH  16  18
ATOM     17  C   UNL     1       4.580   5.787  -5.263  0.00  0.00    +0.019 C 
ATOM     18  C   UNL     1       4.120   7.184  -4.955  0.00  0.00    +0.072 C 
ENDBRANCH  16  18
BRANCH  16  19
ATOM     19  C   UNL     1       3.025   7.093  -2.851  0.00  0.00    +0.072 C 
ATOM     20  C   UNL     1       3.947   8.200  -2.404  0.00  0.00    +0.019 C 
ENDBRANCH  16  19
ENDBRANCH  15  16
ENDBRANCH  14  15
ENDBRANCH   1  14
TORSDOF 7
ENDMDL
