MODEL 1
REMARK VINA RESULT:      -8.3      0.000      0.000
REMARK  Name = 
REMARK  7 active torsions:
REMARK  status: ('A' for Active; 'I' for Inactive)
REMARK    1  A    between atoms: C_2  and  N_3
REMARK    2  A    between atoms: C_2  and  C_20
REMARK    3  A    between atoms: N_3  and  C_4
REMARK    4  A    between atoms: C_4  and  C_5
REMARK    5  A    between atoms: C_8  and  O_9
REMARK    6  A    between atoms: O_9  and  C_10
REMARK    7  A    between atoms: C_10  and  C_11
REMARK                            x       y       z     vdW  Elec       q    Type
REMARK                         _______ _______ _______ _____ _____    ______ ____
ROOT
ATOM      1  C   UNL     1       4.598   5.364  -8.799  0.00  0.00    -0.005 A 
ATOM      2  C   UNL     1       3.780   4.308  -9.202  0.00  0.00    +0.000 A 
ATOM      3  C   UNL     1       2.704   3.886  -8.431  0.00  0.00    +0.037 A 
ATOM      4  C   UNL     1       2.485   4.607  -7.262  0.00  0.00    +0.139 A 
ATOM      5  C   UNL     1       3.405   5.542  -6.805  0.00  0.00    +0.037 A 
ATOM      6  C   UNL     1       4.654   5.463  -7.409  0.00  0.00    +0.000 A 
ENDROOT
BRANCH   1   7
ATOM      7  C   UNL     1       5.737   5.626  -9.680  0.00  0.00    +0.115 C 
BRANCH   7   8
ATOM      8  N   UNL     1       5.491   5.742 -11.061  0.00  0.00    -0.205 NA
BRANCH   8  10
ATOM      9  C   UNL     1       7.802   5.768 -10.685  0.00  0.00    +0.029 C 
ATOM     10  C   UNL     1       6.719   6.547 -11.698  0.00  0.00    +0.152 C 
BRANCH  10  11
ATOM     11  C   UNL     1       6.927   5.398 -12.856  0.00  0.00    +0.277 C 
ATOM     12  O   UNL     1       7.800   4.560 -12.543  0.00  0.00    -0.270 OA
ATOM     13  N   UNL     1       5.637   4.956 -13.282  0.00  0.00    -0.087 NA
ENDBRANCH  10  11
ENDBRANCH   8  10
ENDBRANCH   7   8
ENDBRANCH   1   7
BRANCH   4  14
ATOM     14  O   UNL     1       1.283   4.492  -6.557  0.00  0.00    -0.471 OA
BRANCH  14  15
ATOM     15  C   UNL     1       1.139   5.140  -5.297  0.00  0.00    +0.232 C 
BRANCH  15  16
ATOM     16  C   UNL     1      -0.215   5.769  -5.267  0.00  0.00    +0.023 A 
ATOM     17  C   UNL     1      -0.375   6.996  -4.636  0.00  0.00    +0.029 A 
ATOM     18  C   UNL     1      -1.572   7.643  -4.789  0.00  0.00    +0.140 A 
ATOM     19  F   UNL     1      -1.773   8.911  -4.371  0.00  0.00    -0.204 F 
ATOM     20  C   UNL     1      -2.629   7.024  -5.444  0.00  0.00    +0.030 A 
ATOM     21  C   UNL     1      -2.395   5.950  -6.282  0.00  0.00    +0.002 A 
ATOM     22  C   UNL     1      -1.166   5.330  -6.141  0.00  0.00    -0.001 A 
ENDBRANCH  15  16
ENDBRANCH  14  15
ENDBRANCH   4  14
TORSDOF 7
ENDMDL
MODEL 2
REMARK VINA RESULT:      -8.1      4.440      8.873
REMARK  Name = 
REMARK  7 active torsions:
REMARK  status: ('A' for Active; 'I' for Inactive)
REMARK    1  A    between atoms: C_2  and  N_3
REMARK    2  A    between atoms: C_2  and  C_20
REMARK    3  A    between atoms: N_3  and  C_4
REMARK    4  A    between atoms: C_4  and  C_5
REMARK    5  A    between atoms: C_8  and  O_9
REMARK    6  A    between atoms: O_9  and  C_10
REMARK    7  A    between atoms: C_10  and  C_11
REMARK                            x       y       z     vdW  Elec       q    Type
REMARK                         _______ _______ _______ _____ _____    ______ ____
ROOT
ATOM      1  C   UNL     1       1.422   5.931  -5.203  0.00  0.00    -0.005 A 
ATOM      2  C   UNL     1       1.371   4.610  -5.649  0.00  0.00    +0.000 A 
ATOM      3  C   UNL     1       2.086   4.192  -6.764  0.00  0.00    +0.037 A 
ATOM      4  C   UNL     1       2.872   5.165  -7.372  0.00  0.00    +0.139 A 
ATOM      5  C   UNL     1       2.779   6.502  -7.008  0.00  0.00    +0.037 A 
ATOM      6  C   UNL     1       1.655   6.816  -6.255  0.00  0.00    +0.000 A 
ENDROOT
BRANCH   1   7
ATOM      7  C   UNL     1       0.544   6.228  -4.070  0.00  0.00    +0.115 C 
BRANCH   7   8
ATOM      8  N   UNL     1      -0.652   5.495  -3.952  0.00  0.00    -0.205 NA
BRANCH   8  10
ATOM      9  C   UNL     1      -2.315   5.728  -5.585  0.00  0.00    +0.029 C 
ATOM     10  C   UNL     1      -1.863   6.518  -4.178  0.00  0.00    +0.152 C 
BRANCH  10  11
ATOM     11  C   UNL     1      -2.878   5.579  -3.288  0.00  0.00    +0.277 C 
ATOM     12  O   UNL     1      -2.263   4.749  -2.583  0.00  0.00    -0.270 OA
ATOM     13  N   UNL     1      -3.863   6.426  -2.692  0.00  0.00    -0.087 NA
ENDBRANCH  10  11
ENDBRANCH   8  10
ENDBRANCH   7   8
ENDBRANCH   1   7
BRANCH   4  14
ATOM     14  O   UNL     1       3.860   4.819  -8.300  0.00  0.00    -0.471 OA
BRANCH  14  15
ATOM     15  C   UNL     1       3.754   5.274  -9.645  0.00  0.00    +0.232 C 
BRANCH  15  16
ATOM     16  C   UNL     1       5.075   5.853 -10.030  0.00  0.00    +0.023 A 
ATOM     17  C   UNL     1       5.109   6.981 -10.840  0.00  0.00    +0.029 A 
ATOM     18  C   UNL     1       6.313   7.605 -11.019  0.00  0.00    +0.140 A 
ATOM     19  F   UNL     1       6.429   8.802 -11.636  0.00  0.00    -0.204 F 
ATOM     20  C   UNL     1       7.479   7.047 -10.510  0.00  0.00    +0.030 A 
ATOM     21  C   UNL     1       7.417   6.100  -9.505  0.00  0.00    +0.002 A 
ATOM     22  C   UNL     1       6.183   5.504  -9.312  0.00  0.00    -0.001 A 
ENDBRANCH  15  16
ENDBRANCH  14  15
ENDBRANCH   4  14
TORSDOF 7
ENDMDL
MODEL 3
REMARK VINA RESULT:      -8.0      1.329      1.646
REMARK  Name = 
REMARK  7 active torsions:
REMARK  status: ('A' for Active; 'I' for Inactive)
REMARK    1  A    between atoms: C_2  and  N_3
REMARK    2  A    between atoms: C_2  and  C_20
REMARK    3  A    between atoms: N_3  and  C_4
REMARK    4  A    between atoms: C_4  and  C_5
REMARK    5  A    between atoms: C_8  and  O_9
REMARK    6  A    between atoms: O_9  and  C_10
REMARK    7  A    between atoms: C_10  and  C_11
REMARK                            x       y       z     vdW  Elec       q    Type
REMARK                         _______ _______ _______ _____ _____    ______ ____
ROOT
ATOM      1  C   UNL     1       3.562   6.323  -8.967  0.00  0.00    -0.005 A 
ATOM      2  C   UNL     1       4.311   5.729  -7.951  0.00  0.00    +0.000 A 
ATOM      3  C   UNL     1       3.889   5.753  -6.628  0.00  0.00    +0.037 A 
ATOM      4  C   UNL     1       2.665   6.372  -6.401  0.00  0.00    +0.139 A 
ATOM      5  C   UNL     1       2.021   7.093  -7.398  0.00  0.00    +0.037 A 
ATOM      6  C   UNL     1       2.822   7.404  -8.491  0.00  0.00    +0.000 A 
ENDROOT
BRANCH   1   7
ATOM      7  C   UNL     1       4.188   6.287 -10.290  0.00  0.00    +0.115 C 
BRANCH   7   8
ATOM      8  N   UNL     1       5.561   5.985 -10.362  0.00  0.00    -0.205 NA
BRANCH   8  10
ATOM      9  C   UNL     1       6.619   7.874 -11.256  0.00  0.00    +0.029 C 
ATOM     10  C   UNL     1       6.064   6.399 -11.825  0.00  0.00    +0.152 C 
BRANCH  10  11
ATOM     11  C   UNL     1       7.533   5.709 -11.561  0.00  0.00    +0.277 C 
ATOM     12  O   UNL     1       7.721   5.437 -10.355  0.00  0.00    -0.270 OA
ATOM     13  N   UNL     1       7.740   4.705 -12.557  0.00  0.00    -0.087 NA
ENDBRANCH  10  11
ENDBRANCH   8  10
ENDBRANCH   7   8
ENDBRANCH   1   7
BRANCH   4  14
ATOM     14  O   UNL     1       1.985   6.206  -5.190  0.00  0.00    -0.471 OA
BRANCH  14  15
ATOM     15  C   UNL     1       1.006   5.180  -5.065  0.00  0.00    +0.232 C 
BRANCH  15  16
ATOM     16  C   UNL     1      -0.337   5.831  -5.108  0.00  0.00    +0.023 A 
ATOM     17  C   UNL     1      -0.513   7.057  -4.480  0.00  0.00    +0.029 A 
ATOM     18  C   UNL     1      -1.688   7.725  -4.697  0.00  0.00    +0.140 A 
ATOM     19  F   UNL     1      -1.892   8.994  -4.283  0.00  0.00    -0.204 F 
ATOM     20  C   UNL     1      -2.716   7.128  -5.416  0.00  0.00    +0.030 A 
ATOM     21  C   UNL     1      -2.452   6.054  -6.245  0.00  0.00    +0.002 A 
ATOM     22  C   UNL     1      -1.244   5.413  -6.039  0.00  0.00    -0.001 A 
ENDBRANCH  15  16
ENDBRANCH  14  15
ENDBRANCH   4  14
TORSDOF 7
ENDMDL
MODEL 4
REMARK VINA RESULT:      -7.9      4.385      8.927
REMARK  Name = 
REMARK  7 active torsions:
REMARK  status: ('A' for Active; 'I' for Inactive)
REMARK    1  A    between atoms: C_2  and  N_3
REMARK    2  A    between atoms: C_2  and  C_20
REMARK    3  A    between atoms: N_3  and  C_4
REMARK    4  A    between atoms: C_4  and  C_5
REMARK    5  A    between atoms: C_8  and  O_9
REMARK    6  A    between atoms: O_9  and  C_10
REMARK    7  A    between atoms: C_10  and  C_11
REMARK                            x       y       z     vdW  Elec       q    Type
REMARK                         _______ _______ _______ _____ _____    ______ ____
ROOT
ATOM      1  C   UNL     1      -0.014   5.535  -6.814  0.00  0.00    -0.005 A 
ATOM      2  C   UNL     1       1.128   4.845  -6.407  0.00  0.00    +0.000 A 
ATOM      3  C   UNL     1       2.162   4.565  -7.291  0.00  0.00    +0.037 A 
ATOM      4  C   UNL     1       1.993   5.049  -8.584  0.00  0.00    +0.139 A 
ATOM      5  C   UNL     1       0.783   5.588  -9.003  0.00  0.00    +0.037 A 
ATOM      6  C   UNL     1      -0.290   5.315  -8.163  0.00  0.00    +0.000 A 
ENDROOT
BRANCH   1   7
ATOM      7  C   UNL     1      -1.047   5.671  -5.785  0.00  0.00    +0.115 C 
BRANCH   7   8
ATOM      8  N   UNL     1      -0.694   5.378  -4.454  0.00  0.00    -0.205 NA
BRANCH   8  10
ATOM      9  C   UNL     1      -2.711   6.549  -4.241  0.00  0.00    +0.029 C 
ATOM     10  C   UNL     1      -1.186   6.604  -3.550  0.00  0.00    +0.152 C 
BRANCH  10  11
ATOM     11  C   UNL     1      -1.658   5.584  -2.349  0.00  0.00    +0.277 C 
ATOM     12  O   UNL     1      -2.663   4.911  -2.666  0.00  0.00    -0.270 OA
ATOM     13  N   UNL     1      -0.497   4.930  -1.837  0.00  0.00    -0.087 NA
ENDBRANCH  10  11
ENDBRANCH   8  10
ENDBRANCH   7   8
ENDBRANCH   1   7
BRANCH   4  14
ATOM     14  O   UNL     1       3.065   5.106  -9.480  0.00  0.00    -0.471 OA
BRANCH  14  15
ATOM     15  C   UNL     1       3.308   6.301 -10.215  0.00  0.00    +0.232 C 
BRANCH  15  16
ATOM     16  C   UNL     1       4.772   6.585 -10.143  0.00  0.00    +0.023 A 
ATOM     17  C   UNL     1       5.605   5.676  -9.503  0.00  0.00    +0.029 A 
ATOM     18  C   UNL     1       6.957   5.855  -9.618  0.00  0.00    +0.140 A 
ATOM     19  F   UNL     1       7.852   4.939  -9.190  0.00  0.00    -0.204 F 
ATOM     20  C   UNL     1       7.467   6.985 -10.245  0.00  0.00    +0.030 A 
ATOM     21  C   UNL     1       6.670   7.730 -11.093  0.00  0.00    +0.002 A 
ATOM     22  C   UNL     1       5.308   7.510 -10.991  0.00  0.00    -0.001 A 
ENDBRANCH  15  16
ENDBRANCH  14  15
ENDBRANCH   4  14
TORSDOF 7
ENDMDL
MODEL 5
REMARK VINA RESULT:      -7.5      1.804      2.200
REMARK  Name = 
REMARK  7 active torsions:
REMARK  status: ('A' for Active; 'I' for Inactive)
REMARK    1  A    between atoms: C_2  and  N_3
REMARK    2  A    between atoms: C_2  and  C_20
REMARK    3  A    between atoms: N_3  and  C_4
REMARK    4  A    between atoms: C_4  and  C_5
REMARK    5  A    between atoms: C_8  and  O_9
REMARK    6  A    between atoms: O_9  and  C_10
REMARK    7  A    between atoms: C_10  and  C_11
REMARK                            x       y       z     vdW  Elec       q    Type
REMARK                         _______ _______ _______ _____ _____    ______ ____
ROOT
ATOM      1  C   UNL     1       3.643   5.897  -9.183  0.00  0.00    -0.005 A 
ATOM      2  C   UNL     1       4.235   5.436  -8.007  0.00  0.00    +0.000 A 
ATOM      3  C   UNL     1       3.773   5.830  -6.758  0.00  0.00    +0.037 A 
ATOM      4  C   UNL     1       2.670   6.677  -6.766  0.00  0.00    +0.139 A 
ATOM      5  C   UNL     1       2.204   7.247  -7.944  0.00  0.00    +0.037 A 
ATOM      6  C   UNL     1       3.090   7.165  -9.012  0.00  0.00    +0.000 A 
ENDROOT
BRANCH   1   7
ATOM      7  C   UNL     1       4.304   5.457 -10.413  0.00  0.00    +0.115 C 
BRANCH   7   8
ATOM      8  N   UNL     1       5.707   5.544 -10.476  0.00  0.00    -0.205 NA
BRANCH   8  10
ATOM      9  C   UNL     1       6.926   7.413 -11.189  0.00  0.00    +0.029 C 
ATOM     10  C   UNL     1       6.083   6.156 -11.907  0.00  0.00    +0.152 C 
BRANCH  10  11
ATOM     11  C   UNL     1       7.449   5.244 -11.986  0.00  0.00    +0.277 C 
ATOM     12  O   UNL     1       7.574   4.669 -13.089  0.00  0.00    -0.270 OA
ATOM     13  N   UNL     1       8.531   6.013 -11.458  0.00  0.00    -0.087 NA
ENDBRANCH  10  11
ENDBRANCH   8  10
ENDBRANCH   7   8
ENDBRANCH   1   7
BRANCH   4  14
ATOM     14  O   UNL     1       1.926   6.906  -5.605  0.00  0.00    -0.471 OA
BRANCH  14  15
ATOM     15  C   UNL     1       1.551   5.807  -4.779  0.00  0.00    +0.232 C 
BRANCH  15  16
ATOM     16  C   UNL     1       0.068   5.859  -4.607  0.00  0.00    +0.023 A 
ATOM     17  C   UNL     1      -0.742   5.871  -5.735  0.00  0.00    +0.029 A 
ATOM     18  C   UNL     1      -2.091   5.722  -5.556  0.00  0.00    +0.140 A 
ATOM     19  F   UNL     1      -2.947   5.541  -6.585  0.00  0.00    -0.204 F 
ATOM     20  C   UNL     1      -2.633   5.692  -4.278  0.00  0.00    +0.030 A 
ATOM     21  C   UNL     1      -1.830   5.416  -3.187  0.00  0.00    +0.002 A 
ATOM     22  C   UNL     1      -0.467   5.535  -3.394  0.00  0.00    -0.001 A 
ENDBRANCH  15  16
ENDBRANCH  14  15
ENDBRANCH   4  14
TORSDOF 7
ENDMDL
MODEL 6
REMARK VINA RESULT:      -7.1      2.733      3.888
REMARK  Name = 
REMARK  7 active torsions:
REMARK  status: ('A' for Active; 'I' for Inactive)
REMARK    1  A    between atoms: C_2  and  N_3
REMARK    2  A    between atoms: C_2  and  C_20
REMARK    3  A    between atoms: N_3  and  C_4
REMARK    4  A    between atoms: C_4  and  C_5
REMARK    5  A    between atoms: C_8  and  O_9
REMARK    6  A    between atoms: O_9  and  C_10
REMARK    7  A    between atoms: C_10  and  C_11
REMARK                            x       y       z     vdW  Elec       q    Type
REMARK                         _______ _______ _______ _____ _____    ______ ____
ROOT
ATOM      1  C   UNL     1       4.484   6.051  -9.527  0.00  0.00    -0.005 A 
ATOM      2  C   UNL     1       3.458   6.947  -9.224  0.00  0.00    +0.000 A 
ATOM      3  C   UNL     1       2.379   6.576  -8.432  0.00  0.00    +0.037 A 
ATOM      4  C   UNL     1       2.415   5.275  -7.942  0.00  0.00    +0.139 A 
ATOM      5  C   UNL     1       3.358   4.358  -8.388  0.00  0.00    +0.037 A 
ATOM      6  C   UNL     1       4.022   4.735  -9.549  0.00  0.00    +0.000 A 
ENDROOT
BRANCH   1   7
ATOM      7  C   UNL     1       5.500   6.571 -10.443  0.00  0.00    +0.115 C 
BRANCH   7   8
ATOM      8  N   UNL     1       5.108   6.870 -11.762  0.00  0.00    -0.205 NA
BRANCH   8  10
ATOM      9  C   UNL     1       7.404   6.891 -11.298  0.00  0.00    +0.029 C 
ATOM     10  C   UNL     1       6.432   6.875 -12.663  0.00  0.00    +0.152 C 
BRANCH  10  11
ATOM     11  C   UNL     1       6.462   5.232 -12.703  0.00  0.00    +0.277 C 
ATOM     12  O   UNL     1       5.560   4.757 -13.428  0.00  0.00    -0.270 OA
ATOM     13  N   UNL     1       7.816   4.814 -12.888  0.00  0.00    -0.087 NA
ENDBRANCH  10  11
ENDBRANCH   8  10
ENDBRANCH   7   8
ENDBRANCH   1   7
BRANCH   4  14
ATOM     14  O   UNL     1       1.567   4.870  -6.905  0.00  0.00    -0.471 OA
BRANCH  14  15
ATOM     15  C   UNL     1       1.328   5.745  -5.807  0.00  0.00    +0.232 C 
BRANCH  15  16
ATOM     16  C   UNL     1       2.624   5.934  -5.091  0.00  0.00    +0.023 A 
ATOM     17  C   UNL     1       3.395   4.820  -4.785  0.00  0.00    +0.029 A 
ATOM     18  C   UNL     1       4.661   5.029  -4.308  0.00  0.00    +0.140 A 
ATOM     19  F   UNL     1       5.554   4.028  -4.147  0.00  0.00    -0.204 F 
ATOM     20  C   UNL     1       5.103   6.314  -4.020  0.00  0.00    +0.030 A 
ATOM     21  C   UNL     1       4.457   7.410  -4.561  0.00  0.00    +0.002 A 
ATOM     22  C   UNL     1       3.193   7.175  -5.073  0.00  0.00    -0.001 A 
ENDBRANCH  15  16
ENDBRANCH  14  15
ENDBRANCH   4  14
TORSDOF 7
ENDMDL
MODEL 7
REMARK VINA RESULT:      -7.0      2.178      3.001
REMARK  Name = 
REMARK  7 active torsions:
REMARK  status: ('A' for Active; 'I' for Inactive)
REMARK    1  A    between atoms: C_2  and  N_3
REMARK    2  A    between atoms: C_2  and  C_20
REMARK    3  A    between atoms: N_3  and  C_4
REMARK    4  A    between atoms: C_4  and  C_5
REMARK    5  A    between atoms: C_8  and  O_9
REMARK    6  A    between atoms: O_9  and  C_10
REMARK    7  A    between atoms: C_10  and  C_11
REMARK                            x       y       z     vdW  Elec       q    Type
REMARK                         _______ _______ _______ _____ _____    ______ ____
ROOT
ATOM      1  C   UNL     1       3.982   6.413 -10.114  0.00  0.00    -0.005 A 
ATOM      2  C   UNL     1       4.348   5.130  -9.707  0.00  0.00    +0.000 A 
ATOM      3  C   UNL     1       3.629   4.442  -8.737  0.00  0.00    +0.037 A 
ATOM      4  C   UNL     1       2.513   5.104  -8.237  0.00  0.00    +0.139 A 
ATOM      5  C   UNL     1       2.266   6.437  -8.538  0.00  0.00    +0.037 A 
ATOM      6  C   UNL     1       3.349   7.113  -9.087  0.00  0.00    +0.000 A 
ENDROOT
BRANCH   1   7
ATOM      7  C   UNL     1       4.894   7.032 -11.078  0.00  0.00    +0.115 C 
BRANCH   7   8
ATOM      8  N   UNL     1       5.209   6.311 -12.245  0.00  0.00    -0.205 NA
BRANCH   8  10
ATOM      9  C   UNL     1       6.927   7.566 -11.265  0.00  0.00    +0.029 C 
ATOM     10  C   UNL     1       6.657   6.795 -12.728  0.00  0.00    +0.152 C 
BRANCH  10  11
ATOM     11  C   UNL     1       7.353   5.416 -12.165  0.00  0.00    +0.277 C 
ATOM     12  O   UNL     1       7.652   4.624 -13.085  0.00  0.00    -0.270 OA
ATOM     13  N   UNL     1       8.333   5.776 -11.190  0.00  0.00    -0.087 NA
ENDBRANCH  10  11
ENDBRANCH   8  10
ENDBRANCH   7   8
ENDBRANCH   1   7
BRANCH   4  14
ATOM     14  O   UNL     1       1.543   4.423  -7.494  0.00  0.00    -0.471 OA
BRANCH  14  15
ATOM     15  C   UNL     1       1.929   3.680  -6.342  0.00  0.00    +0.232 C 
BRANCH  15  16
ATOM     16  C   UNL     1       2.249   4.658  -5.261  0.00  0.00    +0.023 A 
ATOM     17  C   UNL     1       1.209   5.236  -4.543  0.00  0.00    +0.029 A 
ATOM     18  C   UNL     1       1.529   5.974  -3.436  0.00  0.00    +0.140 A 
ATOM     19  F   UNL     1       0.597   6.428  -2.570  0.00  0.00    -0.204 F 
ATOM     20  C   UNL     1       2.856   6.240  -3.124  0.00  0.00    +0.030 A 
ATOM     21  C   UNL     1       3.866   5.466  -3.664  0.00  0.00    +0.002 A 
ATOM     22  C   UNL     1       3.518   4.697  -4.760  0.00  0.00    -0.001 A 
ENDBRANCH  15  16
ENDBRANCH  14  15
ENDBRANCH   4  14
TORSDOF 7
ENDMDL
MODEL 8
REMARK VINA RESULT:      -7.0      4.706      9.224
REMARK  Name = 
REMARK  7 active torsions:
REMARK  status: ('A' for Active; 'I' for Inactive)
REMARK    1  A    between atoms: C_2  and  N_3
REMARK    2  A    between atoms: C_2  and  C_20
REMARK    3  A    between atoms: N_3  and  C_4
REMARK    4  A    between atoms: C_4  and  C_5
REMARK    5  A    between atoms: C_8  and  O_9
REMARK    6  A    between atoms: O_9  and  C_10
REMARK    7  A    between atoms: C_10  and  C_11
REMARK                            x       y       z     vdW  Elec       q    Type
REMARK                         _______ _______ _______ _____ _____    ______ ____
ROOT
ATOM      1  C   UNL     1       2.220   6.586  -6.046  0.00  0.00    -0.005 A 
ATOM      2  C   UNL     1       2.926   5.409  -6.299  0.00  0.00    +0.000 A 
ATOM      3  C   UNL     1       3.631   5.225  -7.482  0.00  0.00    +0.037 A 
ATOM      4  C   UNL     1       3.610   6.298  -8.366  0.00  0.00    +0.139 A 
ATOM      5  C   UNL     1       2.772   7.387  -8.163  0.00  0.00    +0.037 A 
ATOM      6  C   UNL     1       1.768   7.173  -7.227  0.00  0.00    +0.000 A 
ENDROOT
BRANCH   1   7
ATOM      7  C   UNL     1       1.461   6.586  -4.795  0.00  0.00    +0.115 C 
BRANCH   7   8
ATOM      8  N   UNL     1       0.124   6.146  -4.834  0.00  0.00    -0.205 NA
BRANCH   8  10
ATOM      9  C   UNL     1       0.643   6.256  -2.553  0.00  0.00    +0.029 C 
ATOM     10  C   UNL     1      -0.090   5.162  -3.588  0.00  0.00    +0.152 C 
BRANCH  10  11
ATOM     11  C   UNL     1      -1.569   5.811  -3.277  0.00  0.00    +0.277 C 
ATOM     12  O   UNL     1      -2.112   6.273  -4.304  0.00  0.00    -0.270 OA
ATOM     13  N   UNL     1      -2.287   4.904  -2.439  0.00  0.00    -0.087 NA
ENDBRANCH  10  11
ENDBRANCH   8  10
ENDBRANCH   7   8
ENDBRANCH   1   7
BRANCH   4  14
ATOM     14  O   UNL     1       4.507   6.369  -9.436  0.00  0.00    -0.471 OA
BRANCH  14  15
ATOM     15  C   UNL     1       5.720   5.625  -9.391  0.00  0.00    +0.232 C 
BRANCH  15  16
ATOM     16  C   UNL     1       6.426   5.836 -10.690  0.00  0.00    +0.023 A 
ATOM     17  C   UNL     1       7.810   5.953 -10.695  0.00  0.00    +0.029 A 
ATOM     18  C   UNL     1       8.449   5.949 -11.906  0.00  0.00    +0.140 A 
ATOM     19  F   UNL     1       9.793   5.878 -12.021  0.00  0.00    -0.204 F 
ATOM     20  C   UNL     1       7.719   5.960 -13.088  0.00  0.00    +0.030 A 
ATOM     21  C   UNL     1       6.389   5.582 -13.089  0.00  0.00    +0.002 A 
ATOM     22  C   UNL     1       5.768   5.555 -11.853  0.00  0.00    -0.001 A 
ENDBRANCH  15  16
ENDBRANCH  14  15
ENDBRANCH   4  14
TORSDOF 7
ENDMDL
MODEL 9
REMARK VINA RESULT:      -6.9      3.474      5.546
REMARK  Name = 
REMARK  7 active torsions:
REMARK  status: ('A' for Active; 'I' for Inactive)
REMARK    1  A    between atoms: C_2  and  N_3
REMARK    2  A    between atoms: C_2  and  C_20
REMARK    3  A    between atoms: N_3  and  C_4
REMARK    4  A    between atoms: C_4  and  C_5
REMARK    5  A    between atoms: C_8  and  O_9
REMARK    6  A    between atoms: O_9  and  C_10
REMARK    7  A    between atoms: C_10  and  C_11
REMARK                            x       y       z     vdW  Elec       q    Type
REMARK                         _______ _______ _______ _____ _____    ______ ____
ROOT
ATOM      1  C   UNL     1       6.832   6.547 -13.073  0.00  0.00    -0.005 A 
ATOM      2  C   UNL     1       7.717   5.602 -12.553  0.00  0.00    +0.000 A 
ATOM      3  C   UNL     1       7.802   5.361 -11.188  0.00  0.00    +0.037 A 
ATOM      4  C   UNL     1       6.927   6.095 -10.394  0.00  0.00    +0.139 A 
ATOM      5  C   UNL     1       6.176   7.139 -10.918  0.00  0.00    +0.037 A 
ATOM      6  C   UNL     1       6.597   7.580 -12.167  0.00  0.00    +0.000 A 
ENDROOT
BRANCH   1   7
ATOM      7  C   UNL     1       6.928   6.743 -14.521  0.00  0.00    +0.115 C 
BRANCH   7   8
ATOM      8  N   UNL     1       6.162   7.771 -15.100  0.00  0.00    -0.205 NA
BRANCH   8  10
ATOM      9  C   UNL     1       6.956   6.476 -16.883  0.00  0.00    +0.029 C 
ATOM     10  C   UNL     1       6.812   8.106 -16.525  0.00  0.00    +0.152 C 
BRANCH  10  11
ATOM     11  C   UNL     1       5.330   8.164 -17.235  0.00  0.00    +0.277 C 
ATOM     12  O   UNL     1       4.732   7.067 -17.178  0.00  0.00    -0.270 OA
ATOM     13  N   UNL     1       4.673   9.356 -16.801  0.00  0.00    -0.087 NA
ENDBRANCH  10  11
ENDBRANCH   8  10
ENDBRANCH   7   8
ENDBRANCH   1   7
BRANCH   4  14
ATOM     14  O   UNL     1       6.694   5.743  -9.061  0.00  0.00    -0.471 OA
BRANCH  14  15
ATOM     15  C   UNL     1       5.577   4.922  -8.732  0.00  0.00    +0.232 C 
BRANCH  15  16
ATOM     16  C   UNL     1       4.604   5.767  -7.978  0.00  0.00    +0.023 A 
ATOM     17  C   UNL     1       3.574   6.393  -8.669  0.00  0.00    +0.029 A 
ATOM     18  C   UNL     1       2.587   6.997  -7.939  0.00  0.00    +0.140 A 
ATOM     19  F   UNL     1       1.456   7.476  -8.500  0.00  0.00    -0.204 F 
ATOM     20  C   UNL     1       2.689   7.090  -6.557  0.00  0.00    +0.030 A 
ATOM     21  C   UNL     1       3.549   6.258  -5.865  0.00  0.00    +0.002 A 
ATOM     22  C   UNL     1       4.518   5.625  -6.623  0.00  0.00    -0.001 A 
ENDBRANCH  15  16
ENDBRANCH  14  15
ENDBRANCH   4  14
TORSDOF 7
ENDMDL
