MODEL 1
REMARK VINA RESULT:      -7.9      0.000      0.000
REMARK  Name = 
REMARK  5 active torsions:
REMARK  status: ('A' for Active; 'I' for Inactive)
REMARK    1  A    between atoms: C_6  and  O_7
REMARK    2  A    between atoms: O_7  and  C_8
REMARK    3  A    between atoms: C_8  and  C_10
REMARK    4  A    between atoms: C_10  and  C_11
REMARK    5  A    between atoms: C_10  and  C_13
REMARK                            x       y       z     vdW  Elec       q    Type
REMARK                         _______ _______ _______ _____ _____    ______ ____
ROOT
ATOM      1  O   UNL     1       3.175   6.157  -7.363  0.00  0.00    -0.452 OA
ENDROOT
BRANCH   1   9
ATOM      2  C   UNL     1       4.633   5.636  -5.391  0.00  0.00    +0.170 C 
ATOM      3  N   UNL     1       4.184   5.531  -5.367  0.00  0.00    +0.302 N 
ATOM      4  C   UNL     1       2.680   5.816  -5.002  0.00  0.00    +0.093 C 
ATOM      5  C   UNL     1       2.862   5.300  -3.419  0.00  0.00    +0.197 C 
ATOM      6  C   UNL     1       3.809   6.684  -3.334  0.00  0.00    +0.197 C 
ATOM      7  O   UNL     1       2.198   6.777  -3.048  0.00  0.00    -0.342 OA
ATOM      8  C   UNL     1       2.160   4.587  -5.833  0.00  0.00    +0.101 C 
ATOM      9  C   UNL     1       1.841   6.059  -6.608  0.00  0.00    +0.180 C 
ATOM     10  C   UNL     1       2.274   7.146  -5.442  0.00  0.00    +0.101 C 
ATOM     11  C   UNL     1       3.853   7.036  -5.032  0.00  0.00    +0.093 C 
ATOM     12  C   UNL     1       4.743   4.823  -4.320  0.00  0.00    +0.170 C 
ENDBRANCH   1   9
BRANCH   1  13
ATOM     13  C   UNL     1       3.057   6.775  -8.601  0.00  0.00    +0.323 C 
ATOM     14  O   UNL     1       1.993   7.384  -8.711  0.00  0.00    -0.250 OA
BRANCH  13  15
ATOM     15  C   UNL     1       3.592   5.867  -9.815  0.00  0.00    +0.154 C 
BRANCH  15  16
ATOM     16  C   UNL     1       5.034   6.568  -9.969  0.00  0.00    -0.009 A 
ATOM     17  C   UNL     1       6.019   5.666  -9.595  0.00  0.00    -0.004 A 
ATOM     18  C   UNL     1       7.342   6.058  -9.752  0.00  0.00    -0.000 A 
ATOM     19  C   UNL     1       7.601   7.216 -10.443  0.00  0.00    -0.000 A 
ATOM     20  C   UNL     1       6.586   7.781 -11.184  0.00  0.00    -0.000 A 
ATOM     21  C   UNL     1       5.282   7.333 -11.033  0.00  0.00    -0.004 A 
ENDBRANCH  15  16
BRANCH  15  22
ATOM     22  C   UNL     1       4.156   4.635  -8.893  0.00  0.00    +0.198 C 
ATOM     23  O   UNL     1       3.359   3.544  -9.002  0.00  0.00    -0.219 OA
ENDBRANCH  15  22
ENDBRANCH  13  15
ENDBRANCH   1  13
TORSDOF 5
ENDMDL
MODEL 2
REMARK VINA RESULT:      -7.8      3.235      5.169
REMARK  Name = 
REMARK  5 active torsions:
REMARK  status: ('A' for Active; 'I' for Inactive)
REMARK    1  A    between atoms: C_6  and  O_7
REMARK    2  A    between atoms: O_7  and  C_8
REMARK    3  A    between atoms: C_8  and  C_10
REMARK    4  A    between atoms: C_10  and  C_11
REMARK    5  A    between atoms: C_10  and  C_13
REMARK                            x       y       z     vdW  Elec       q    Type
REMARK                         _______ _______ _______ _____ _____    ______ ____
ROOT
ATOM      1  O   UNL     1       2.732   5.652  -5.777  0.00  0.00    -0.452 OA
ENDROOT
BRANCH   1   9
ATOM      2  C   UNL     1       4.242   7.405  -4.815  0.00  0.00    +0.170 C 
ATOM      3  N   UNL     1       4.242   6.986  -4.622  0.00  0.00    +0.302 N 
ATOM      4  C   UNL     1       3.764   5.903  -3.585  0.00  0.00    +0.093 C 
ATOM      5  C   UNL     1       4.835   6.417  -2.405  0.00  0.00    +0.197 C 
ATOM      6  C   UNL     1       3.832   7.764  -2.424  0.00  0.00    +0.197 C 
ATOM      7  O   UNL     1       3.476   6.492  -1.454  0.00  0.00    -0.342 OA
ATOM      8  C   UNL     1       4.461   4.730  -4.364  0.00  0.00    +0.101 C 
ATOM      9  C   UNL     1       2.779   4.713  -4.563  0.00  0.00    +0.180 C 
ATOM     10  C   UNL     1       2.309   5.874  -3.486  0.00  0.00    +0.101 C 
ATOM     11  C   UNL     1       2.921   7.348  -3.841  0.00  0.00    +0.093 C 
ATOM     12  C   UNL     1       5.384   7.577  -4.117  0.00  0.00    +0.170 C 
ENDBRANCH   1   9
BRANCH   1  13
ATOM     13  C   UNL     1       2.166   5.062  -6.900  0.00  0.00    +0.323 C 
ATOM     14  O   UNL     1       2.988   4.408  -7.541  0.00  0.00    -0.250 OA
BRANCH  13  15
ATOM     15  C   UNL     1       1.134   6.026  -7.668  0.00  0.00    +0.154 C 
BRANCH  15  16
ATOM     16  C   UNL     1      -0.093   5.870  -6.635  0.00  0.00    -0.009 A 
ATOM     17  C   UNL     1      -0.171   7.009  -5.848  0.00  0.00    -0.004 A 
ATOM     18  C   UNL     1      -1.232   7.101  -4.957  0.00  0.00    -0.000 A 
ATOM     19  C   UNL     1      -2.239   6.172  -5.044  0.00  0.00    -0.000 A 
ATOM     20  C   UNL     1      -2.304   5.375  -6.165  0.00  0.00    -0.000 A 
ATOM     21  C   UNL     1      -1.243   5.342  -7.057  0.00  0.00    -0.004 A 
ENDBRANCH  15  16
BRANCH  15  22
ATOM     22  C   UNL     1       1.665   7.430  -7.010  0.00  0.00    +0.198 C 
ATOM     23  O   UNL     1       2.222   8.228  -7.954  0.00  0.00    -0.219 OA
ENDBRANCH  15  22
ENDBRANCH  13  15
ENDBRANCH   1  13
TORSDOF 5
ENDMDL
MODEL 3
REMARK VINA RESULT:      -7.7      1.928      3.128
REMARK  Name = 
REMARK  5 active torsions:
REMARK  status: ('A' for Active; 'I' for Inactive)
REMARK    1  A    between atoms: C_6  and  O_7
REMARK    2  A    between atoms: O_7  and  C_8
REMARK    3  A    between atoms: C_8  and  C_10
REMARK    4  A    between atoms: C_10  and  C_11
REMARK    5  A    between atoms: C_10  and  C_13
REMARK                            x       y       z     vdW  Elec       q    Type
REMARK                         _______ _______ _______ _____ _____    ______ ____
ROOT
ATOM      1  O   UNL     1       3.757   5.254  -8.178  0.00  0.00    -0.452 OA
ENDROOT
BRANCH   1   9
ATOM      2  C   UNL     1       1.271   4.980  -8.008  0.00  0.00    +0.170 C 
ATOM      3  N   UNL     1       1.472   5.319  -7.768  0.00  0.00    +0.302 N 
ATOM      4  C   UNL     1       2.143   5.947  -6.490  0.00  0.00    +0.093 C 
ATOM      5  C   UNL     1       0.674   6.360  -5.800  0.00  0.00    +0.197 C 
ATOM      6  C   UNL     1       0.532   4.691  -5.688  0.00  0.00    +0.197 C 
ATOM      7  O   UNL     1       1.259   5.533  -4.485  0.00  0.00    -0.342 OA
ATOM      8  C   UNL     1       2.656   7.206  -7.277  0.00  0.00    +0.101 C 
ATOM      9  C   UNL     1       3.910   6.125  -6.922  0.00  0.00    +0.180 C 
ATOM     10  C   UNL     1       3.146   5.050  -5.928  0.00  0.00    +0.101 C 
ATOM     11  C   UNL     1       1.906   4.280  -6.664  0.00  0.00    +0.093 C 
ATOM     12  C   UNL     1       0.131   5.651  -7.745  0.00  0.00    +0.170 C 
ENDBRANCH   1   9
BRANCH   1  13
ATOM     13  C   UNL     1       4.893   5.246  -8.977  0.00  0.00    +0.323 C 
ATOM     14  O   UNL     1       5.906   4.977  -8.334  0.00  0.00    -0.250 OA
BRANCH  13  15
ATOM     15  C   UNL     1       4.918   6.443 -10.050  0.00  0.00    +0.154 C 
BRANCH  15  16
ATOM     16  C   UNL     1       6.265   5.998 -10.815  0.00  0.00    -0.009 A 
ATOM     17  C   UNL     1       5.939   5.556 -12.089  0.00  0.00    -0.004 A 
ATOM     18  C   UNL     1       6.984   5.218 -12.938  0.00  0.00    -0.000 A 
ATOM     19  C   UNL     1       8.264   5.524 -12.550  0.00  0.00    -0.000 A 
ATOM     20  C   UNL     1       8.442   6.390 -11.493  0.00  0.00    -0.000 A 
ATOM     21  C   UNL     1       7.366   6.741 -10.692  0.00  0.00    -0.004 A 
ENDBRANCH  15  16
BRANCH  15  22
ATOM     22  C   UNL     1       3.922   5.736 -11.143  0.00  0.00    +0.198 C 
ATOM     23  O   UNL     1       2.691   6.303 -11.114  0.00  0.00    -0.219 OA
ENDBRANCH  15  22
ENDBRANCH  13  15
ENDBRANCH   1  13
TORSDOF 5
ENDMDL
MODEL 4
REMARK VINA RESULT:      -7.6      3.067      6.979
REMARK  Name = 
REMARK  5 active torsions:
REMARK  status: ('A' for Active; 'I' for Inactive)
REMARK    1  A    between atoms: C_6  and  O_7
REMARK    2  A    between atoms: O_7  and  C_8
REMARK    3  A    between atoms: C_8  and  C_10
REMARK    4  A    between atoms: C_10  and  C_11
REMARK    5  A    between atoms: C_10  and  C_13
REMARK                            x       y       z     vdW  Elec       q    Type
REMARK                         _______ _______ _______ _____ _____    ______ ____
ROOT
ATOM      1  O   UNL     1       0.900   5.356  -7.096  0.00  0.00    -0.452 OA
ENDROOT
BRANCH   1   9
ATOM      2  C   UNL     1       3.384   5.022  -7.100  0.00  0.00    +0.170 C 
ATOM      3  N   UNL     1       3.206   5.348  -7.373  0.00  0.00    +0.302 N 
ATOM      4  C   UNL     1       2.625   5.901  -8.728  0.00  0.00    +0.093 C 
ATOM      5  C   UNL     1       4.141   6.237  -9.356  0.00  0.00    +0.197 C 
ATOM      6  C   UNL     1       4.249   4.561  -9.347  0.00  0.00    +0.197 C 
ATOM      7  O   UNL     1       3.612   5.334 -10.645  0.00  0.00    -0.342 OA
ATOM      8  C   UNL     1       2.097   7.221  -8.059  0.00  0.00    +0.101 C 
ATOM      9  C   UNL     1       0.840   6.142  -8.414  0.00  0.00    +0.180 C 
ATOM     10  C   UNL     1       1.635   4.987  -9.287  0.00  0.00    +0.101 C 
ATOM     11  C   UNL     1       2.811   4.245  -8.429  0.00  0.00    +0.093 C 
ATOM     12  C   UNL     1       4.554   5.650  -7.339  0.00  0.00    +0.170 C 
ENDBRANCH   1   9
BRANCH   1  13
ATOM     13  C   UNL     1      -0.240   5.511  -6.317  0.00  0.00    +0.323 C 
ATOM     14  O   UNL     1      -1.267   5.292  -6.957  0.00  0.00    -0.250 OA
BRANCH  13  15
ATOM     15  C   UNL     1      -0.164   6.778  -5.331  0.00  0.00    +0.154 C 
BRANCH  15  16
ATOM     16  C   UNL     1      -1.324   6.312  -4.315  0.00  0.00    -0.009 A 
ATOM     17  C   UNL     1      -0.744   5.709  -3.210  0.00  0.00    -0.004 A 
ATOM     18  C   UNL     1      -1.585   5.324  -2.174  0.00  0.00    -0.000 A 
ATOM     19  C   UNL     1      -2.894   5.735  -2.210  0.00  0.00    -0.000 A 
ATOM     20  C   UNL     1      -3.249   6.726  -3.098  0.00  0.00    -0.000 A 
ATOM     21  C   UNL     1      -2.366   7.116  -4.094  0.00  0.00    -0.004 A 
ENDBRANCH  15  16
BRANCH  15  22
ATOM     22  C   UNL     1       1.052   6.211  -4.390  0.00  0.00    +0.198 C 
ATOM     23  O   UNL     1       2.145   7.009  -4.478  0.00  0.00    -0.219 OA
ENDBRANCH  15  22
ENDBRANCH  13  15
ENDBRANCH   1  13
TORSDOF 5
ENDMDL
MODEL 5
REMARK VINA RESULT:      -7.5      1.903      5.513
REMARK  Name = 
REMARK  5 active torsions:
REMARK  status: ('A' for Active; 'I' for Inactive)
REMARK    1  A    between atoms: C_6  and  O_7
REMARK    2  A    between atoms: O_7  and  C_8
REMARK    3  A    between atoms: C_8  and  C_10
REMARK    4  A    between atoms: C_10  and  C_11
REMARK    5  A    between atoms: C_10  and  C_13
REMARK                            x       y       z     vdW  Elec       q    Type
REMARK                         _______ _______ _______ _____ _____    ______ ____
ROOT
ATOM      1  O   UNL     1       1.835   5.306  -6.926  0.00  0.00    -0.452 OA
ENDROOT
BRANCH   1   9
ATOM      2  C   UNL     1       4.161   5.119  -7.840  0.00  0.00    +0.170 C 
ATOM      3  N   UNL     1       3.898   5.470  -7.980  0.00  0.00    +0.302 N 
ATOM      4  C   UNL     1       2.877   6.179  -8.947  0.00  0.00    +0.093 C 
ATOM      5  C   UNL     1       4.076   6.689  -9.999  0.00  0.00    +0.197 C 
ATOM      6  C   UNL     1       4.185   5.038 -10.290  0.00  0.00    +0.197 C 
ATOM      7  O   UNL     1       3.132   5.953 -11.151  0.00  0.00    -0.342 OA
ATOM      8  C   UNL     1       2.614   7.356  -7.940  0.00  0.00    +0.101 C 
ATOM      9  C   UNL     1       1.315   6.270  -8.002  0.00  0.00    +0.180 C 
ATOM     10  C   UNL     1       1.757   5.301  -9.265  0.00  0.00    +0.101 C 
ATOM     11  C   UNL     1       3.161   4.511  -8.993  0.00  0.00    +0.093 C 
ATOM     12  C   UNL     1       5.171   5.841  -8.368  0.00  0.00    +0.170 C 
ENDBRANCH   1   9
BRANCH   1  13
ATOM     13  C   UNL     1       0.829   4.811  -6.106  0.00  0.00    +0.323 C 
ATOM     14  O   UNL     1      -0.287   4.971  -6.599  0.00  0.00    -0.250 OA
BRANCH  13  15
ATOM     15  C   UNL     1       1.070   5.127  -4.548  0.00  0.00    +0.154 C 
BRANCH  15  16
ATOM     16  C   UNL     1       2.620   5.549  -4.667  0.00  0.00    -0.009 A 
ATOM     17  C   UNL     1       2.755   6.885  -4.321  0.00  0.00    -0.004 A 
ATOM     18  C   UNL     1       4.040   7.408  -4.271  0.00  0.00    -0.000 A 
ATOM     19  C   UNL     1       5.101   6.543  -4.367  0.00  0.00    -0.000 A 
ATOM     20  C   UNL     1       4.864   5.193  -4.225  0.00  0.00    -0.000 A 
ATOM     21  C   UNL     1       3.564   4.710  -4.236  0.00  0.00    -0.004 A 
ENDBRANCH  15  16
BRANCH  15  22
ATOM     22  C   UNL     1       0.524   6.672  -4.583  0.00  0.00    +0.198 C 
ATOM     23  O   UNL     1      -0.637   6.791  -3.892  0.00  0.00    -0.219 OA
ENDBRANCH  15  22
ENDBRANCH  13  15
ENDBRANCH   1  13
TORSDOF 5
ENDMDL
MODEL 6
REMARK VINA RESULT:      -7.4      3.706      5.134
REMARK  Name = 
REMARK  5 active torsions:
REMARK  status: ('A' for Active; 'I' for Inactive)
REMARK    1  A    between atoms: C_6  and  O_7
REMARK    2  A    between atoms: O_7  and  C_8
REMARK    3  A    between atoms: C_8  and  C_10
REMARK    4  A    between atoms: C_10  and  C_11
REMARK    5  A    between atoms: C_10  and  C_13
REMARK                            x       y       z     vdW  Elec       q    Type
REMARK                         _______ _______ _______ _____ _____    ______ ____
ROOT
ATOM      1  O   UNL     1      -0.891   5.924  -5.519  0.00  0.00    -0.452 OA
ENDROOT
BRANCH   1   9
ATOM      2  C   UNL     1      -2.626   5.286  -3.827  0.00  0.00    +0.170 C 
ATOM      3  N   UNL     1      -2.473   5.720  -3.831  0.00  0.00    +0.302 N 
ATOM      4  C   UNL     1      -1.528   6.896  -3.379  0.00  0.00    +0.093 C 
ATOM      5  C   UNL     1      -2.463   7.263  -2.038  0.00  0.00    +0.197 C 
ATOM      6  C   UNL     1      -1.897   5.764  -1.535  0.00  0.00    +0.197 C 
ATOM      7  O   UNL     1      -1.027   7.116  -1.217  0.00  0.00    -0.342 OA
ATOM      8  C   UNL     1      -2.001   7.835  -4.545  0.00  0.00    +0.101 C 
ATOM      9  C   UNL     1      -0.448   7.216  -4.818  0.00  0.00    +0.180 C 
ATOM     10  C   UNL     1      -0.131   6.476  -3.376  0.00  0.00    +0.101 C 
ATOM     11  C   UNL     1      -1.185   5.273  -3.038  0.00  0.00    +0.093 C 
ATOM     12  C   UNL     1      -3.621   5.786  -3.065  0.00  0.00    +0.170 C 
ENDBRANCH   1   9
BRANCH   1  13
ATOM     13  C   UNL     1       0.042   5.453  -6.434  0.00  0.00    +0.323 C 
ATOM     14  O   UNL     1       0.612   4.441  -6.030  0.00  0.00    -0.250 OA
BRANCH  13  15
ATOM     15  C   UNL     1       0.891   6.626  -7.132  0.00  0.00    +0.154 C 
BRANCH  15  16
ATOM     16  C   UNL     1       2.346   6.145  -6.635  0.00  0.00    -0.009 A 
ATOM     17  C   UNL     1       3.103   5.774  -7.736  0.00  0.00    -0.004 A 
ATOM     18  C   UNL     1       4.426   5.419  -7.515  0.00  0.00    -0.000 A 
ATOM     19  C   UNL     1       4.962   5.643  -6.271  0.00  0.00    -0.000 A 
ATOM     20  C   UNL     1       4.275   6.453  -5.394  0.00  0.00    -0.000 A 
ATOM     21  C   UNL     1       2.967   6.824  -5.670  0.00  0.00    -0.004 A 
ENDBRANCH  15  16
BRANCH  15  22
ATOM     22  C   UNL     1       1.026   5.911  -8.601  0.00  0.00    +0.198 C 
ATOM     23  O   UNL     1      -0.197   5.671  -9.137  0.00  0.00    -0.219 OA
ENDBRANCH  15  22
ENDBRANCH  13  15
ENDBRANCH   1  13
TORSDOF 5
ENDMDL
MODEL 7
REMARK VINA RESULT:      -7.3      1.651      2.548
REMARK  Name = 
REMARK  5 active torsions:
REMARK  status: ('A' for Active; 'I' for Inactive)
REMARK    1  A    between atoms: C_6  and  O_7
REMARK    2  A    between atoms: O_7  and  C_8
REMARK    3  A    between atoms: C_8  and  C_10
REMARK    4  A    between atoms: C_10  and  C_11
REMARK    5  A    between atoms: C_10  and  C_13
REMARK                            x       y       z     vdW  Elec       q    Type
REMARK                         _______ _______ _______ _____ _____    ______ ____
ROOT
ATOM      1  O   UNL     1       3.059   5.368  -7.830  0.00  0.00    -0.452 OA
ENDROOT
BRANCH   1   9
ATOM      2  C   UNL     1       2.666   6.888  -5.876  0.00  0.00    +0.170 C 
ATOM      3  N   UNL     1       2.548   6.444  -5.836  0.00  0.00    +0.302 N 
ATOM      4  C   UNL     1       1.552   5.229  -5.921  0.00  0.00    +0.093 C 
ATOM      5  C   UNL     1       0.924   5.509  -4.393  0.00  0.00    +0.197 C 
ATOM      6  C   UNL     1       0.322   6.878  -5.156  0.00  0.00    +0.197 C 
ATOM      7  O   UNL     1      -0.537   5.483  -5.182  0.00  0.00    -0.342 OA
ATOM      8  C   UNL     1       2.700   4.169  -5.763  0.00  0.00    +0.101 C 
ATOM      9  C   UNL     1       2.123   4.247  -7.353  0.00  0.00    +0.180 C 
ATOM     10  C   UNL     1       0.814   5.240  -7.179  0.00  0.00    +0.101 C 
ATOM     11  C   UNL     1       1.218   6.727  -6.634  0.00  0.00    +0.093 C 
ATOM     12  C   UNL     1       2.541   6.903  -4.533  0.00  0.00    +0.170 C 
ENDBRANCH   1   9
BRANCH   1  13
ATOM     13  C   UNL     1       3.467   5.213  -9.148  0.00  0.00    +0.323 C 
ATOM     14  O   UNL     1       4.024   4.132  -9.333  0.00  0.00    -0.250 OA
BRANCH  13  15
ATOM     15  C   UNL     1       4.089   6.554  -9.779  0.00  0.00    +0.154 C 
BRANCH  15  16
ATOM     16  C   UNL     1       5.535   5.949 -10.151  0.00  0.00    -0.009 A 
ATOM     17  C   UNL     1       5.896   6.382 -11.418  0.00  0.00    -0.004 A 
ATOM     18  C   UNL     1       7.161   6.039 -11.877  0.00  0.00    -0.000 A 
ATOM     19  C   UNL     1       8.045   5.474 -10.992  0.00  0.00    -0.000 A 
ATOM     20  C   UNL     1       7.754   5.528  -9.646  0.00  0.00    -0.000 A 
ATOM     21  C   UNL     1       6.492   5.918  -9.222  0.00  0.00    -0.004 A 
ENDBRANCH  15  16
BRANCH  15  22
ATOM     22  C   UNL     1       3.483   6.350 -11.288  0.00  0.00    +0.198 C 
ATOM     23  O   UNL     1       2.128   6.374 -11.273  0.00  0.00    -0.219 OA
ENDBRANCH  15  22
ENDBRANCH  13  15
ENDBRANCH   1  13
TORSDOF 5
ENDMDL
MODEL 8
REMARK VINA RESULT:      -7.3      2.576      5.896
REMARK  Name = 
REMARK  5 active torsions:
REMARK  status: ('A' for Active; 'I' for Inactive)
REMARK    1  A    between atoms: C_6  and  O_7
REMARK    2  A    between atoms: O_7  and  C_8
REMARK    3  A    between atoms: C_8  and  C_10
REMARK    4  A    between atoms: C_10  and  C_11
REMARK    5  A    between atoms: C_10  and  C_13
REMARK                            x       y       z     vdW  Elec       q    Type
REMARK                         _______ _______ _______ _____ _____    ______ ____
ROOT
ATOM      1  O   UNL     1       1.312   5.559  -4.817  0.00  0.00    -0.452 OA
ENDROOT
BRANCH   1   9
ATOM      2  C   UNL     1       2.337   6.980  -6.609  0.00  0.00    +0.170 C 
ATOM      3  N   UNL     1       1.984   6.705  -6.722  0.00  0.00    +0.302 N 
ATOM      4  C   UNL     1       1.337   5.369  -7.245  0.00  0.00    +0.093 C 
ATOM      5  C   UNL     1       1.467   5.820  -8.853  0.00  0.00    +0.197 C 
ATOM      6  C   UNL     1       3.103   5.645  -8.518  0.00  0.00    +0.197 C 
ATOM      7  O   UNL     1       2.228   4.353  -9.019  0.00  0.00    -0.342 OA
ATOM      8  C   UNL     1      -0.101   5.779  -6.763  0.00  0.00    +0.101 C 
ATOM      9  C   UNL     1       0.588   4.595  -5.768  0.00  0.00    +0.180 C 
ATOM     10  C   UNL     1       1.951   4.205  -6.616  0.00  0.00    +0.101 C 
ATOM     11  C   UNL     1       2.966   5.474  -6.797  0.00  0.00    +0.093 C 
ATOM     12  C   UNL     1       2.075   7.575  -7.791  0.00  0.00    +0.170 C 
ENDBRANCH   1   9
BRANCH   1  13
ATOM     13  C   UNL     1       0.856   5.477  -3.507  0.00  0.00    +0.323 C 
ATOM     14  O   UNL     1       0.007   6.334  -3.262  0.00  0.00    -0.250 OA
BRANCH  13  15
ATOM     15  C   UNL     1       2.027   5.182  -2.447  0.00  0.00    +0.154 C 
BRANCH  15  16
ATOM     16  C   UNL     1       3.186   6.019  -3.190  0.00  0.00    -0.009 A 
ATOM     17  C   UNL     1       3.296   7.268  -2.598  0.00  0.00    -0.004 A 
ATOM     18  C   UNL     1       4.313   8.102  -3.043  0.00  0.00    -0.000 A 
ATOM     19  C   UNL     1       5.262   7.581  -3.886  0.00  0.00    -0.000 A 
ATOM     20  C   UNL     1       5.334   6.213  -4.030  0.00  0.00    -0.000 A 
ATOM     21  C   UNL     1       4.321   5.406  -3.534  0.00  0.00    -0.004 A 
ENDBRANCH  15  16
BRANCH  15  22
ATOM     22  C   UNL     1       1.652   6.395  -1.410  0.00  0.00    +0.198 C 
ATOM     23  O   UNL     1       1.339   5.906  -0.185  0.00  0.00    -0.219 OA
ENDBRANCH  15  22
ENDBRANCH  13  15
ENDBRANCH   1  13
TORSDOF 5
ENDMDL
MODEL 9
REMARK VINA RESULT:      -7.2      4.680      6.583
REMARK  Name = 
REMARK  5 active torsions:
REMARK  status: ('A' for Active; 'I' for Inactive)
REMARK    1  A    between atoms: C_6  and  O_7
REMARK    2  A    between atoms: O_7  and  C_8
REMARK    3  A    between atoms: C_8  and  C_10
REMARK    4  A    between atoms: C_10  and  C_11
REMARK    5  A    between atoms: C_10  and  C_13
REMARK                            x       y       z     vdW  Elec       q    Type
REMARK                         _______ _______ _______ _____ _____    ______ ____
ROOT
ATOM      1  O   UNL     1       1.789   5.745  -2.381  0.00  0.00    -0.452 OA
ENDROOT
BRANCH   1   9
ATOM      2  C   UNL     1       3.699   7.360  -2.215  0.00  0.00    +0.170 C 
ATOM      3  N   UNL     1       3.714   6.975  -1.961  0.00  0.00    +0.302 N 
ATOM      4  C   UNL     1       3.469   6.126  -0.659  0.00  0.00    +0.093 C 
ATOM      5  C   UNL     1       4.901   6.624   0.054  0.00  0.00    +0.197 C 
ATOM      6  C   UNL     1       4.089   8.093   0.092  0.00  0.00    +0.197 C 
ATOM      7  O   UNL     1       3.918   7.032   1.329  0.00  0.00    -0.342 OA
ATOM      8  C   UNL     1       3.763   4.767  -1.390  0.00  0.00    +0.101 C 
ATOM      9  C   UNL     1       2.110   4.982  -1.088  0.00  0.00    +0.180 C 
ATOM     10  C   UNL     1       2.122   6.334  -0.141  0.00  0.00    +0.101 C 
ATOM     11  C   UNL     1       2.746   7.637  -0.907  0.00  0.00    +0.093 C 
ATOM     12  C   UNL     1       5.013   7.446  -1.918  0.00  0.00    +0.170 C 
ENDBRANCH   1   9
BRANCH   1  13
ATOM     13  C   UNL     1       0.555   5.408  -2.921  0.00  0.00    +0.323 C 
ATOM     14  O   UNL     1      -0.058   4.615  -2.208  0.00  0.00    -0.250 OA
BRANCH  13  15
ATOM     15  C   UNL     1       0.601   5.186  -4.513  0.00  0.00    +0.154 C 
BRANCH  15  16
ATOM     16  C   UNL     1      -0.854   5.796  -4.842  0.00  0.00    -0.009 A 
ATOM     17  C   UNL     1      -0.886   7.128  -4.456  0.00  0.00    -0.004 A 
ATOM     18  C   UNL     1      -2.032   7.854  -4.749  0.00  0.00    -0.000 A 
ATOM     19  C   UNL     1      -2.974   7.282  -5.568  0.00  0.00    -0.000 A 
ATOM     20  C   UNL     1      -2.629   6.157  -6.282  0.00  0.00    -0.000 A 
ATOM     21  C   UNL     1      -1.453   5.481  -5.992  0.00  0.00    -0.004 A 
ENDBRANCH  15  16
BRANCH  15  22
ATOM     22  C   UNL     1       1.395   6.574  -4.873  0.00  0.00    +0.198 C 
ATOM     23  O   UNL     1       2.438   6.333  -5.705  0.00  0.00    -0.219 OA
ENDBRANCH  15  22
ENDBRANCH  13  15
ENDBRANCH   1  13
TORSDOF 5
ENDMDL
