MODEL 1
REMARK VINA RESULT:      -6.9      0.000      0.000
REMARK  Name = 
REMARK  12 active torsions:
REMARK  status: ('A' for Active; 'I' for Inactive)
REMARK    1  A    between atoms: C_2  and  C_3
REMARK    2  A    between atoms: C_3  and  C_4
REMARK    3  A    between atoms: C_4  and  C_5
REMARK    4  A    between atoms: C_5  and  C_6
REMARK    5  A    between atoms: C_6  and  C_8
REMARK    6  A    between atoms: C_9  and  C_10
REMARK    7  A    between atoms: C_16  and  C_17
REMARK    8  A    between atoms: C_17  and  C_18
REMARK    9  A    between atoms: C_19  and  C_20
REMARK   10  A    between atoms: C_20  and  C_21
REMARK   11  A    between atoms: C_21  and  C_22
REMARK   12  A    between atoms: C_22  and  C_23
REMARK                            x       y       z     vdW  Elec       q    Type
REMARK                         _______ _______ _______ _____ _____    ______ ____
ROOT
ATOM      1  C   UNL     1      -0.715   5.414  -3.587  0.00  0.00    +0.060 C 
ATOM      2  C   UNL     1      -0.770   6.512  -4.894  0.00  0.00    +0.068 C 
ATOM      3  C   UNL     1      -2.244   7.081  -4.554  0.00  0.00    +0.154 C 
ATOM      4  O   UNL     1      -2.346   8.260  -4.809  0.00  0.00    -0.296 OA
ATOM      5  C   UNL     1      -2.984   6.066  -3.885  0.00  0.00    +0.098 C 
ATOM      6  C   UNL     1      -1.860   6.306  -2.667  0.00  0.00    +0.164 C 
ATOM      7  O   UNL     1      -2.329   5.019  -1.964  0.00  0.00    -0.222 OA
ENDROOT
BRANCH   1   9
ATOM      8  C   UNL     1       1.525   5.389  -2.732  0.00  0.00    +0.002 C 
ATOM      9  C   UNL     1       0.498   6.193  -2.912  0.00  0.00    -0.026 C 
BRANCH   8  10
ATOM     10  C   UNL     1       2.535   5.901  -1.514  0.00  0.00    +0.174 C 
ATOM     11  O   UNL     1       2.040   4.762  -0.574  0.00  0.00    -0.218 OA
BRANCH  10  12
ATOM     12  C   UNL     1       3.811   5.009  -2.163  0.00  0.00    +0.037 C 
BRANCH  12  13
ATOM     13  C   UNL     1       3.698   5.010  -3.619  0.00  0.00    +0.003 C 
BRANCH  13  14
ATOM     14  C   UNL     1       4.876   5.667  -4.258  0.00  0.00    +0.000 C 
BRANCH  14  16
ATOM     15  C   UNL     1       3.426   7.102  -5.385  0.00  0.00    +0.000 C 
ATOM     16  C   UNL     1       4.547   7.021  -4.863  0.00  0.00    +0.000 C 
ENDBRANCH  14  16
ENDBRANCH  13  14
ENDBRANCH  12  13
ENDBRANCH  10  12
ENDBRANCH   8  10
ENDBRANCH   1   9
BRANCH   2  17
ATOM     17  C   UNL     1      -1.419   5.434  -5.966  0.00  0.00    +0.033 C 
BRANCH  17  18
ATOM     18  C   UNL     1      -0.728   5.549  -7.235  0.00  0.00    -0.030 C 
ATOM     19  C   UNL     1       0.607   5.429  -7.217  0.00  0.00    -0.031 C 
BRANCH  19  20
ATOM     20  C   UNL     1       1.147   4.312  -6.414  0.00  0.00    +0.026 C 
BRANCH  20  21
ATOM     21  C   UNL     1       2.477   3.805  -6.923  0.00  0.00    +0.016 C 
BRANCH  21  22
ATOM     22  C   UNL     1       2.611   3.970  -8.405  0.00  0.00    +0.114 C 
BRANCH  22  23
ATOM     23  C   UNL     1       3.826   4.726  -8.809  0.00  0.00    +0.365 C 
ATOM     24  O   UNL     1       4.250   4.816 -10.140  0.00  0.00    -0.246 OA
ATOM     25  O   UNL     1       4.634   5.035  -7.882  0.00  0.00    -0.246 OA
ENDBRANCH  22  23
ENDBRANCH  21  22
ENDBRANCH  20  21
ENDBRANCH  19  20
ENDBRANCH  17  18
ENDBRANCH   2  17
TORSDOF 12
ENDMDL
MODEL 2
REMARK VINA RESULT:      -6.8      2.811      4.436
REMARK  Name = 
REMARK  12 active torsions:
REMARK  status: ('A' for Active; 'I' for Inactive)
REMARK    1  A    between atoms: C_2  and  C_3
REMARK    2  A    between atoms: C_3  and  C_4
REMARK    3  A    between atoms: C_4  and  C_5
REMARK    4  A    between atoms: C_5  and  C_6
REMARK    5  A    between atoms: C_6  and  C_8
REMARK    6  A    between atoms: C_9  and  C_10
REMARK    7  A    between atoms: C_16  and  C_17
REMARK    8  A    between atoms: C_17  and  C_18
REMARK    9  A    between atoms: C_19  and  C_20
REMARK   10  A    between atoms: C_20  and  C_21
REMARK   11  A    between atoms: C_21  and  C_22
REMARK   12  A    between atoms: C_22  and  C_23
REMARK                            x       y       z     vdW  Elec       q    Type
REMARK                         _______ _______ _______ _____ _____    ______ ____
ROOT
ATOM      1  C   UNL     1       1.760   5.499  -5.985  0.00  0.00    +0.060 C 
ATOM      2  C   UNL     1       2.882   6.612  -6.633  0.00  0.00    +0.068 C 
ATOM      3  C   UNL     1       1.889   7.184  -7.772  0.00  0.00    +0.154 C 
ATOM      4  O   UNL     1       2.057   8.366  -7.970  0.00  0.00    -0.296 OA
ATOM      5  C   UNL     1       0.960   6.165  -8.125  0.00  0.00    +0.098 C 
ATOM      6  C   UNL     1       0.404   6.386  -6.560  0.00  0.00    +0.164 C 
ATOM      7  O   UNL     1      -0.426   5.093  -6.661  0.00  0.00    -0.222 OA
ENDROOT
BRANCH   1   9
ATOM      8  C   UNL     1       1.685   5.407  -3.590  0.00  0.00    +0.002 C 
ATOM      9  C   UNL     1       1.722   6.263  -4.590  0.00  0.00    -0.026 C 
BRANCH   8  10
ATOM     10  C   UNL     1       1.019   6.058  -2.213  0.00  0.00    +0.174 C 
ATOM     11  O   UNL     1       0.485   4.664  -1.767  0.00  0.00    -0.218 OA
BRANCH  10  12
ATOM     12  C   UNL     1       2.492   5.915  -1.404  0.00  0.00    +0.037 C 
BRANCH  12  13
ATOM     13  C   UNL     1       3.077   7.244  -1.246  0.00  0.00    +0.003 C 
BRANCH  13  14
ATOM     14  C   UNL     1       4.498   7.273  -1.702  0.00  0.00    +0.000 C 
BRANCH  14  16
ATOM     15  C   UNL     1       5.289   7.138  -3.890  0.00  0.00    +0.000 C 
ATOM     16  C   UNL     1       4.663   7.854  -3.096  0.00  0.00    +0.000 C 
ENDBRANCH  14  16
ENDBRANCH  13  14
ENDBRANCH  12  13
ENDBRANCH  10  12
ENDBRANCH   8  10
ENDBRANCH   1   9
BRANCH   2  17
ATOM     17  C   UNL     1       3.536   5.550  -7.718  0.00  0.00    +0.033 C 
BRANCH  17  18
ATOM     18  C   UNL     1       4.959   5.434  -7.471  0.00  0.00    -0.030 C 
ATOM     19  C   UNL     1       5.742   5.149  -8.521  0.00  0.00    -0.031 C 
BRANCH  19  20
ATOM     20  C   UNL     1       5.474   5.917  -9.755  0.00  0.00    +0.026 C 
BRANCH  20  21
ATOM     21  C   UNL     1       6.711   6.579 -10.321  0.00  0.00    +0.016 C 
BRANCH  21  22
ATOM     22  C   UNL     1       7.804   5.592 -10.586  0.00  0.00    +0.114 C 
BRANCH  22  23
ATOM     23  C   UNL     1       8.159   5.472 -12.024  0.00  0.00    +0.365 C 
ATOM     24  O   UNL     1       7.532   4.561 -12.882  0.00  0.00    -0.246 OA
ATOM     25  O   UNL     1       9.251   6.007 -12.384  0.00  0.00    -0.246 OA
ENDBRANCH  22  23
ENDBRANCH  21  22
ENDBRANCH  20  21
ENDBRANCH  19  20
ENDBRANCH  17  18
ENDBRANCH   2  17
TORSDOF 12
ENDMDL
MODEL 3
REMARK VINA RESULT:      -6.6      2.216      5.518
REMARK  Name = 
REMARK  12 active torsions:
REMARK  status: ('A' for Active; 'I' for Inactive)
REMARK    1  A    between atoms: C_2  and  C_3
REMARK    2  A    between atoms: C_3  and  C_4
REMARK    3  A    between atoms: C_4  and  C_5
REMARK    4  A    between atoms: C_5  and  C_6
REMARK    5  A    between atoms: C_6  and  C_8
REMARK    6  A    between atoms: C_9  and  C_10
REMARK    7  A    between atoms: C_16  and  C_17
REMARK    8  A    between atoms: C_17  and  C_18
REMARK    9  A    between atoms: C_19  and  C_20
REMARK   10  A    between atoms: C_20  and  C_21
REMARK   11  A    between atoms: C_21  and  C_22
REMARK   12  A    between atoms: C_22  and  C_23
REMARK                            x       y       z     vdW  Elec       q    Type
REMARK                         _______ _______ _______ _____ _____    ______ ____
ROOT
ATOM      1  C   UNL     1       1.959   6.365  -4.862  0.00  0.00    +0.060 C 
ATOM      2  C   UNL     1       1.096   5.110  -5.635  0.00  0.00    +0.068 C 
ATOM      3  C   UNL     1       2.099   4.991  -6.897  0.00  0.00    +0.154 C 
ATOM      4  O   UNL     1       2.212   3.849  -7.282  0.00  0.00    -0.296 OA
ATOM      5  C   UNL     1       2.713   6.257  -7.116  0.00  0.00    +0.098 C 
ATOM      6  C   UNL     1       3.437   5.955  -5.636  0.00  0.00    +0.164 C 
ATOM      7  O   UNL     1       3.910   7.418  -5.556  0.00  0.00    -0.222 OA
ENDROOT
BRANCH   1   9
ATOM      8  C   UNL     1       2.299   6.133  -2.499  0.00  0.00    +0.002 C 
ATOM      9  C   UNL     1       2.304   5.436  -3.617  0.00  0.00    -0.026 C 
BRANCH   8  10
ATOM     10  C   UNL     1       3.233   5.444  -1.309  0.00  0.00    +0.174 C 
ATOM     11  O   UNL     1       4.082   4.678  -2.365  0.00  0.00    -0.218 OA
BRANCH  10  12
ATOM     12  C   UNL     1       4.233   6.801  -1.272  0.00  0.00    +0.037 C 
BRANCH  12  13
ATOM     13  C   UNL     1       3.403   8.001  -1.222  0.00  0.00    +0.003 C 
BRANCH  13  14
ATOM     14  C   UNL     1       3.873   8.947  -0.167  0.00  0.00    +0.000 C 
BRANCH  14  16
ATOM     15  C   UNL     1       2.816  10.969   0.308  0.00  0.00    +0.000 C 
ATOM     16  C   UNL     1       3.571  10.400  -0.493  0.00  0.00    +0.000 C 
ENDBRANCH  14  16
ENDBRANCH  13  14
ENDBRANCH  12  13
ENDBRANCH  10  12
ENDBRANCH   8  10
ENDBRANCH   1   9
BRANCH   2  17
ATOM     17  C   UNL     1       0.110   6.118  -6.498  0.00  0.00    +0.033 C 
BRANCH  17  18
ATOM     18  C   UNL     1      -1.120   5.421  -6.818  0.00  0.00    -0.030 C 
ATOM     19  C   UNL     1      -2.135   5.539  -5.951  0.00  0.00    -0.031 C 
BRANCH  19  20
ATOM     20  C   UNL     1      -2.409   6.905  -5.457  0.00  0.00    +0.026 C 
BRANCH  20  21
ATOM     21  C   UNL     1      -2.831   6.937  -4.005  0.00  0.00    +0.016 C 
BRANCH  21  22
ATOM     22  C   UNL     1      -1.676   6.706  -3.080  0.00  0.00    +0.114 C 
BRANCH  22  23
ATOM     23  C   UNL     1      -1.810   5.472  -2.263  0.00  0.00    +0.365 C 
ATOM     24  O   UNL     1      -0.744   4.932  -1.532  0.00  0.00    -0.246 OA
ATOM     25  O   UNL     1      -2.831   4.754  -2.486  0.00  0.00    -0.246 OA
ENDBRANCH  22  23
ENDBRANCH  21  22
ENDBRANCH  20  21
ENDBRANCH  19  20
ENDBRANCH  17  18
ENDBRANCH   2  17
TORSDOF 12
ENDMDL
MODEL 4
REMARK VINA RESULT:      -6.6      3.782      9.312
REMARK  Name = 
REMARK  12 active torsions:
REMARK  status: ('A' for Active; 'I' for Inactive)
REMARK    1  A    between atoms: C_2  and  C_3
REMARK    2  A    between atoms: C_3  and  C_4
REMARK    3  A    between atoms: C_4  and  C_5
REMARK    4  A    between atoms: C_5  and  C_6
REMARK    5  A    between atoms: C_6  and  C_8
REMARK    6  A    between atoms: C_9  and  C_10
REMARK    7  A    between atoms: C_16  and  C_17
REMARK    8  A    between atoms: C_17  and  C_18
REMARK    9  A    between atoms: C_19  and  C_20
REMARK   10  A    between atoms: C_20  and  C_21
REMARK   11  A    between atoms: C_21  and  C_22
REMARK   12  A    between atoms: C_22  and  C_23
REMARK                            x       y       z     vdW  Elec       q    Type
REMARK                         _______ _______ _______ _____ _____    ______ ____
ROOT
ATOM      1  C   UNL     1       5.622   5.395 -11.861  0.00  0.00    +0.060 C 
ATOM      2  C   UNL     1       5.705   6.530 -10.588  0.00  0.00    +0.068 C 
ATOM      3  C   UNL     1       7.228   6.983 -10.885  0.00  0.00    +0.154 C 
ATOM      4  O   UNL     1       7.404   8.160 -10.663  0.00  0.00    -0.296 OA
ATOM      5  C   UNL     1       7.919   5.896 -11.492  0.00  0.00    +0.098 C 
ATOM      6  C   UNL     1       6.862   6.173 -12.762  0.00  0.00    +0.164 C 
ATOM      7  O   UNL     1       7.265   4.833 -13.404  0.00  0.00    -0.222 OA
ENDROOT
BRANCH   1   9
ATOM      8  C   UNL     1       3.316   5.664 -12.460  0.00  0.00    +0.002 C 
ATOM      9  C   UNL     1       4.495   6.233 -12.609  0.00  0.00    -0.026 C 
BRANCH   8  10
ATOM     10  C   UNL     1       2.251   6.068 -13.672  0.00  0.00    +0.174 C 
ATOM     11  O   UNL     1       2.993   5.146 -14.683  0.00  0.00    -0.218 OA
BRANCH  10  12
ATOM     12  C   UNL     1       1.172   4.879 -13.154  0.00  0.00    +0.037 C 
BRANCH  12  13
ATOM     13  C   UNL     1       1.120   4.889 -11.695  0.00  0.00    +0.003 C 
BRANCH  13  14
ATOM     14  C   UNL     1      -0.156   5.483 -11.198  0.00  0.00    +0.000 C 
BRANCH  14  16
ATOM     15  C   UNL     1      -0.682   7.709 -11.646  0.00  0.00    +0.000 C 
ATOM     16  C   UNL     1      -0.040   6.966 -10.890  0.00  0.00    +0.000 C 
ENDBRANCH  14  16
ENDBRANCH  13  14
ENDBRANCH  12  13
ENDBRANCH  10  12
ENDBRANCH   8  10
ENDBRANCH   1   9
BRANCH   2  17
ATOM     17  C   UNL     1       6.235   5.446  -9.457  0.00  0.00    +0.033 C 
BRANCH  17  18
ATOM     18  C   UNL     1       5.517   5.662  -8.217  0.00  0.00    -0.030 C 
ATOM     19  C   UNL     1       4.191   5.471  -8.237  0.00  0.00    -0.031 C 
BRANCH  19  20
ATOM     20  C   UNL     1       3.723   4.246  -8.917  0.00  0.00    +0.026 C 
BRANCH  20  21
ATOM     21  C   UNL     1       2.388   3.755  -8.404  0.00  0.00    +0.016 C 
BRANCH  21  22
ATOM     22  C   UNL     1       1.541   4.874  -7.883  0.00  0.00    +0.114 C 
BRANCH  22  23
ATOM     23  C   UNL     1       1.031   4.639  -6.507  0.00  0.00    +0.365 C 
ATOM     24  O   UNL     1      -0.187   5.160  -6.055  0.00  0.00    -0.246 OA
ATOM     25  O   UNL     1       1.869   4.207  -5.659  0.00  0.00    -0.246 OA
ENDBRANCH  22  23
ENDBRANCH  21  22
ENDBRANCH  20  21
ENDBRANCH  19  20
ENDBRANCH  17  18
ENDBRANCH   2  17
TORSDOF 12
ENDMDL
MODEL 5
REMARK VINA RESULT:      -6.6      1.864      5.260
REMARK  Name = 
REMARK  12 active torsions:
REMARK  status: ('A' for Active; 'I' for Inactive)
REMARK    1  A    between atoms: C_2  and  C_3
REMARK    2  A    between atoms: C_3  and  C_4
REMARK    3  A    between atoms: C_4  and  C_5
REMARK    4  A    between atoms: C_5  and  C_6
REMARK    5  A    between atoms: C_6  and  C_8
REMARK    6  A    between atoms: C_9  and  C_10
REMARK    7  A    between atoms: C_16  and  C_17
REMARK    8  A    between atoms: C_17  and  C_18
REMARK    9  A    between atoms: C_19  and  C_20
REMARK   10  A    between atoms: C_20  and  C_21
REMARK   11  A    between atoms: C_21  and  C_22
REMARK   12  A    between atoms: C_22  and  C_23
REMARK                            x       y       z     vdW  Elec       q    Type
REMARK                         _______ _______ _______ _____ _____    ______ ____
ROOT
ATOM      1  C   UNL     1       2.434   6.494  -2.297  0.00  0.00    +0.060 C 
ATOM      2  C   UNL     1       3.382   5.092  -2.526  0.00  0.00    +0.068 C 
ATOM      3  C   UNL     1       4.205   5.237  -1.142  0.00  0.00    +0.154 C 
ATOM      4  O   UNL     1       4.456   4.162  -0.648  0.00  0.00    -0.296 OA
ATOM      5  C   UNL     1       4.272   6.615  -0.791  0.00  0.00    +0.098 C 
ATOM      6  C   UNL     1       2.617   6.454  -0.588  0.00  0.00    +0.164 C 
ATOM      7  O   UNL     1       2.466   7.985  -0.516  0.00  0.00    -0.222 OA
ENDROOT
BRANCH   1   9
ATOM      8  C   UNL     1       0.200   6.093  -3.072  0.00  0.00    +0.002 C 
ATOM      9  C   UNL     1       1.093   5.641  -2.216  0.00  0.00    -0.026 C 
BRANCH   8  10
ATOM     10  C   UNL     1      -1.359   5.720  -2.631  0.00  0.00    +0.174 C 
ATOM     11  O   UNL     1      -1.104   6.207  -1.174  0.00  0.00    -0.218 OA
BRANCH  10  12
ATOM     12  C   UNL     1      -1.903   7.215  -3.192  0.00  0.00    +0.037 C 
BRANCH  12  13
ATOM     13  C   UNL     1      -1.499   7.373  -4.586  0.00  0.00    +0.003 C 
BRANCH  13  14
ATOM     14  C   UNL     1      -2.607   7.015  -5.520  0.00  0.00    +0.000 C 
BRANCH  14  16
ATOM     15  C   UNL     1      -1.238   5.467  -6.597  0.00  0.00    +0.000 C 
ATOM     16  C   UNL     1      -2.395   5.677  -6.209  0.00  0.00    +0.000 C 
ENDBRANCH  14  16
ENDBRANCH  13  14
ENDBRANCH  12  13
ENDBRANCH  10  12
ENDBRANCH   8  10
ENDBRANCH   1   9
BRANCH   2  17
ATOM     17  C   UNL     1       4.594   5.865  -3.343  0.00  0.00    +0.033 C 
BRANCH  17  18
ATOM     18  C   UNL     1       4.857   5.160  -4.582  0.00  0.00    -0.030 C 
ATOM     19  C   UNL     1       4.007   5.368  -5.597  0.00  0.00    -0.031 C 
BRANCH  19  20
ATOM     20  C   UNL     1       3.635   6.775  -5.852  0.00  0.00    +0.026 C 
BRANCH  20  21
ATOM     21  C   UNL     1       2.178   6.947  -6.217  0.00  0.00    +0.016 C 
BRANCH  21  22
ATOM     22  C   UNL     1       2.007   7.560  -7.572  0.00  0.00    +0.114 C 
BRANCH  22  23
ATOM     23  C   UNL     1       2.536   6.715  -8.674  0.00  0.00    +0.365 C 
ATOM     24  O   UNL     1       3.654   7.079  -9.434  0.00  0.00    -0.246 OA
ATOM     25  O   UNL     1       1.768   5.803  -9.106  0.00  0.00    -0.246 OA
ENDBRANCH  22  23
ENDBRANCH  21  22
ENDBRANCH  20  21
ENDBRANCH  19  20
ENDBRANCH  17  18
ENDBRANCH   2  17
TORSDOF 12
ENDMDL
MODEL 6
REMARK VINA RESULT:      -6.4      2.827      7.309
REMARK  Name = 
REMARK  12 active torsions:
REMARK  status: ('A' for Active; 'I' for Inactive)
REMARK    1  A    between atoms: C_2  and  C_3
REMARK    2  A    between atoms: C_3  and  C_4
REMARK    3  A    between atoms: C_4  and  C_5
REMARK    4  A    between atoms: C_5  and  C_6
REMARK    5  A    between atoms: C_6  and  C_8
REMARK    6  A    between atoms: C_9  and  C_10
REMARK    7  A    between atoms: C_16  and  C_17
REMARK    8  A    between atoms: C_17  and  C_18
REMARK    9  A    between atoms: C_19  and  C_20
REMARK   10  A    between atoms: C_20  and  C_21
REMARK   11  A    between atoms: C_21  and  C_22
REMARK   12  A    between atoms: C_22  and  C_23
REMARK                            x       y       z     vdW  Elec       q    Type
REMARK                         _______ _______ _______ _____ _____    ______ ____
ROOT
ATOM      1  C   UNL     1       3.434   6.533  -7.036  0.00  0.00    +0.060 C 
ATOM      2  C   UNL     1       3.068   5.183  -6.056  0.00  0.00    +0.068 C 
ATOM      3  C   UNL     1       1.500   5.537  -5.888  0.00  0.00    +0.154 C 
ATOM      4  O   UNL     1       0.811   4.542  -5.849  0.00  0.00    -0.296 OA
ATOM      5  C   UNL     1       1.334   6.947  -5.997  0.00  0.00    +0.098 C 
ATOM      6  C   UNL     1       1.813   6.696  -7.583  0.00  0.00    +0.164 C 
ATOM      7  O   UNL     1       2.007   8.211  -7.775  0.00  0.00    -0.222 OA
ENDROOT
BRANCH   1   9
ATOM      8  C   UNL     1       4.985   5.924  -8.761  0.00  0.00    +0.002 C 
ATOM      9  C   UNL     1       3.803   5.604  -8.275  0.00  0.00    -0.026 C 
BRANCH   8  10
ATOM     10  C   UNL     1       5.161   5.488 -10.356  0.00  0.00    +0.174 C 
ATOM     11  O   UNL     1       3.618   5.381 -10.537  0.00  0.00    -0.218 OA
BRANCH  10  12
ATOM     12  C   UNL     1       5.250   7.108 -10.815  0.00  0.00    +0.037 C 
BRANCH  12  13
ATOM     13  C   UNL     1       6.420   7.296 -11.668  0.00  0.00    +0.003 C 
BRANCH  13  14
ATOM     14  C   UNL     1       7.663   6.803 -11.006  0.00  0.00    +0.000 C 
BRANCH  14  16
ATOM     15  C   UNL     1       7.954   5.393 -12.839  0.00  0.00    +0.000 C 
ATOM     16  C   UNL     1       8.553   5.995 -11.936  0.00  0.00    +0.000 C 
ENDBRANCH  14  16
ENDBRANCH  13  14
ENDBRANCH  12  13
ENDBRANCH  10  12
ENDBRANCH   8  10
ENDBRANCH   1   9
BRANCH   2  17
ATOM     17  C   UNL     1       3.406   5.942  -4.626  0.00  0.00    +0.033 C 
BRANCH  17  18
ATOM     18  C   UNL     1       3.478   4.953  -3.569  0.00  0.00    -0.030 C 
ATOM     19  C   UNL     1       3.031   5.317  -2.359  0.00  0.00    -0.031 C 
BRANCH  19  20
ATOM     20  C   UNL     1       1.737   6.031  -2.335  0.00  0.00    +0.026 C 
BRANCH  20  21
ATOM     21  C   UNL     1       0.558   5.114  -2.103  0.00  0.00    +0.016 C 
BRANCH  21  22
ATOM     22  C   UNL     1      -0.458   5.727  -1.190  0.00  0.00    +0.114 C 
BRANCH  22  23
ATOM     23  C   UNL     1      -1.794   5.896  -1.819  0.00  0.00    +0.365 C 
ATOM     24  O   UNL     1      -2.462   7.126  -1.854  0.00  0.00    -0.246 OA
ATOM     25  O   UNL     1      -2.446   4.834  -2.057  0.00  0.00    -0.246 OA
ENDBRANCH  22  23
ENDBRANCH  21  22
ENDBRANCH  20  21
ENDBRANCH  19  20
ENDBRANCH  17  18
ENDBRANCH   2  17
TORSDOF 12
ENDMDL
MODEL 7
REMARK VINA RESULT:      -6.4      2.910      5.266
REMARK  Name = 
REMARK  12 active torsions:
REMARK  status: ('A' for Active; 'I' for Inactive)
REMARK    1  A    between atoms: C_2  and  C_3
REMARK    2  A    between atoms: C_3  and  C_4
REMARK    3  A    between atoms: C_4  and  C_5
REMARK    4  A    between atoms: C_5  and  C_6
REMARK    5  A    between atoms: C_6  and  C_8
REMARK    6  A    between atoms: C_9  and  C_10
REMARK    7  A    between atoms: C_16  and  C_17
REMARK    8  A    between atoms: C_17  and  C_18
REMARK    9  A    between atoms: C_19  and  C_20
REMARK   10  A    between atoms: C_20  and  C_21
REMARK   11  A    between atoms: C_21  and  C_22
REMARK   12  A    between atoms: C_22  and  C_23
REMARK                            x       y       z     vdW  Elec       q    Type
REMARK                         _______ _______ _______ _____ _____    ______ ____
ROOT
ATOM      1  C   UNL     1       1.992   5.509  -6.207  0.00  0.00    +0.060 C 
ATOM      2  C   UNL     1       3.045   6.728  -6.777  0.00  0.00    +0.068 C 
ATOM      3  C   UNL     1       1.995   7.354  -7.835  0.00  0.00    +0.154 C 
ATOM      4  O   UNL     1       2.106   8.555  -7.928  0.00  0.00    -0.296 OA
ATOM      5  C   UNL     1       1.103   6.328  -8.256  0.00  0.00    +0.098 C 
ATOM      6  C   UNL     1       0.583   6.380  -6.665  0.00  0.00    +0.164 C 
ATOM      7  O   UNL     1      -0.192   5.064  -6.863  0.00  0.00    -0.222 OA
ENDROOT
BRANCH   1   9
ATOM      8  C   UNL     1       2.492   5.316  -3.869  0.00  0.00    +0.002 C 
ATOM      9  C   UNL     1       1.960   6.142  -4.747  0.00  0.00    -0.026 C 
BRANCH   8  10
ATOM     10  C   UNL     1       1.945   5.584  -2.323  0.00  0.00    +0.174 C 
ATOM     11  O   UNL     1       2.675   6.958  -2.261  0.00  0.00    -0.218 OA
BRANCH  10  12
ATOM     12  C   UNL     1       0.497   6.214  -2.917  0.00  0.00    +0.037 C 
BRANCH  12  13
ATOM     13  C   UNL     1      -0.608   5.380  -2.457  0.00  0.00    +0.003 C 
BRANCH  13  14
ATOM     14  C   UNL     1      -1.779   5.465  -3.379  0.00  0.00    +0.000 C 
BRANCH  14  16
ATOM     15  C   UNL     1      -2.899   6.780  -1.814  0.00  0.00    +0.000 C 
ATOM     16  C   UNL     1      -3.054   5.909  -2.682  0.00  0.00    +0.000 C 
ENDBRANCH  14  16
ENDBRANCH  13  14
ENDBRANCH  12  13
ENDBRANCH  10  12
ENDBRANCH   8  10
ENDBRANCH   1   9
BRANCH   2  17
ATOM     17  C   UNL     1       3.714   5.799  -7.970  0.00  0.00    +0.033 C 
BRANCH  17  18
ATOM     18  C   UNL     1       5.070   5.451  -7.597  0.00  0.00    -0.030 C 
ATOM     19  C   UNL     1       5.895   5.062  -8.580  0.00  0.00    -0.031 C 
BRANCH  19  20
ATOM     20  C   UNL     1       5.873   5.886  -9.807  0.00  0.00    +0.026 C 
BRANCH  20  21
ATOM     21  C   UNL     1       7.201   6.547 -10.101  0.00  0.00    +0.016 C 
BRANCH  21  22
ATOM     22  C   UNL     1       7.390   6.799 -11.565  0.00  0.00    +0.114 C 
BRANCH  22  23
ATOM     23  C   UNL     1       8.222   5.770 -12.241  0.00  0.00    +0.365 C 
ATOM     24  O   UNL     1       7.713   4.525 -12.629  0.00  0.00    -0.246 OA
ATOM     25  O   UNL     1       9.478   5.932 -12.185  0.00  0.00    -0.246 OA
ENDBRANCH  22  23
ENDBRANCH  21  22
ENDBRANCH  20  21
ENDBRANCH  19  20
ENDBRANCH  17  18
ENDBRANCH   2  17
TORSDOF 12
ENDMDL
MODEL 8
REMARK VINA RESULT:      -6.4      1.880      2.906
REMARK  Name = 
REMARK  12 active torsions:
REMARK  status: ('A' for Active; 'I' for Inactive)
REMARK    1  A    between atoms: C_2  and  C_3
REMARK    2  A    between atoms: C_3  and  C_4
REMARK    3  A    between atoms: C_4  and  C_5
REMARK    4  A    between atoms: C_5  and  C_6
REMARK    5  A    between atoms: C_6  and  C_8
REMARK    6  A    between atoms: C_9  and  C_10
REMARK    7  A    between atoms: C_16  and  C_17
REMARK    8  A    between atoms: C_17  and  C_18
REMARK    9  A    between atoms: C_19  and  C_20
REMARK   10  A    between atoms: C_20  and  C_21
REMARK   11  A    between atoms: C_21  and  C_22
REMARK   12  A    between atoms: C_22  and  C_23
REMARK                            x       y       z     vdW  Elec       q    Type
REMARK                         _______ _______ _______ _____ _____    ______ ____
ROOT
ATOM      1  C   UNL     1       0.328   5.493  -3.588  0.00  0.00    +0.060 C 
ATOM      2  C   UNL     1      -0.792   6.648  -4.161  0.00  0.00    +0.068 C 
ATOM      3  C   UNL     1      -1.624   6.752  -2.779  0.00  0.00    +0.154 C 
ATOM      4  O   UNL     1      -2.029   7.874  -2.576  0.00  0.00    -0.296 OA
ATOM      5  C   UNL     1      -1.515   5.514  -2.084  0.00  0.00    +0.098 C 
ATOM      6  C   UNL     1       0.098   5.943  -1.946  0.00  0.00    +0.164 C 
ATOM      7  O   UNL     1       0.449   4.518  -1.483  0.00  0.00    -0.222 OA
ENDROOT
BRANCH   1   9
ATOM      8  C   UNL     1       2.544   5.948  -4.384  0.00  0.00    +0.002 C 
ATOM      9  C   UNL     1       1.541   6.511  -3.742  0.00  0.00    -0.026 C 
BRANCH   8  10
ATOM     10  C   UNL     1       4.007   6.659  -4.038  0.00  0.00    +0.174 C 
ATOM     11  O   UNL     1       3.894   7.586  -5.283  0.00  0.00    -0.218 OA
BRANCH  10  12
ATOM     12  C   UNL     1       3.260   7.741  -2.981  0.00  0.00    +0.037 C 
BRANCH  12  13
ATOM     13  C   UNL     1       4.139   7.973  -1.839  0.00  0.00    +0.003 C 
BRANCH  13  14
ATOM     14  C   UNL     1       4.782   6.708  -1.379  0.00  0.00    +0.000 C 
BRANCH  14  16
ATOM     15  C   UNL     1       3.925   4.563  -1.066  0.00  0.00    +0.000 C 
ATOM     16  C   UNL     1       3.804   5.747  -0.723  0.00  0.00    +0.000 C 
ENDBRANCH  14  16
ENDBRANCH  13  14
ENDBRANCH  12  13
ENDBRANCH  10  12
ENDBRANCH   8  10
ENDBRANCH   1   9
BRANCH   2  17
ATOM     17  C   UNL     1      -1.870   5.535  -4.740  0.00  0.00    +0.033 C 
BRANCH  17  18
ATOM     18  C   UNL     1      -2.307   5.939  -6.061  0.00  0.00    -0.030 C 
ATOM     19  C   UNL     1      -1.379   5.981  -7.027  0.00  0.00    -0.031 C 
BRANCH  19  20
ATOM     20  C   UNL     1      -0.465   4.822  -7.099  0.00  0.00    +0.026 C 
BRANCH  20  21
ATOM     21  C   UNL     1       0.949   5.203  -7.476  0.00  0.00    +0.016 C 
BRANCH  21  22
ATOM     22  C   UNL     1       0.982   6.329  -8.463  0.00  0.00    +0.114 C 
BRANCH  22  23
ATOM     23  C   UNL     1       2.210   7.161  -8.370  0.00  0.00    +0.365 C 
ATOM     24  O   UNL     1       3.497   6.622  -8.476  0.00  0.00    -0.246 OA
ATOM     25  O   UNL     1       2.068   8.327  -7.890  0.00  0.00    -0.246 OA
ENDBRANCH  22  23
ENDBRANCH  21  22
ENDBRANCH  20  21
ENDBRANCH  19  20
ENDBRANCH  17  18
ENDBRANCH   2  17
TORSDOF 12
ENDMDL
MODEL 9
REMARK VINA RESULT:      -6.3      2.798      7.158
REMARK  Name = 
REMARK  12 active torsions:
REMARK  status: ('A' for Active; 'I' for Inactive)
REMARK    1  A    between atoms: C_2  and  C_3
REMARK    2  A    between atoms: C_3  and  C_4
REMARK    3  A    between atoms: C_4  and  C_5
REMARK    4  A    between atoms: C_5  and  C_6
REMARK    5  A    between atoms: C_6  and  C_8
REMARK    6  A    between atoms: C_9  and  C_10
REMARK    7  A    between atoms: C_16  and  C_17
REMARK    8  A    between atoms: C_17  and  C_18
REMARK    9  A    between atoms: C_19  and  C_20
REMARK   10  A    between atoms: C_20  and  C_21
REMARK   11  A    between atoms: C_21  and  C_22
REMARK   12  A    between atoms: C_22  and  C_23
REMARK                            x       y       z     vdW  Elec       q    Type
REMARK                         _______ _______ _______ _____ _____    ______ ____
ROOT
ATOM      1  C   UNL     1       2.914   6.128  -7.164  0.00  0.00    +0.060 C 
ATOM      2  C   UNL     1       4.192   5.839  -6.068  0.00  0.00    +0.068 C 
ATOM      3  C   UNL     1       3.313   4.956  -5.039  0.00  0.00    +0.154 C 
ATOM      4  O   UNL     1       3.961   4.064  -4.538  0.00  0.00    -0.296 OA
ATOM      5  C   UNL     1       1.954   5.370  -5.123  0.00  0.00    +0.098 C 
ATOM      6  C   UNL     1       2.046   4.729  -6.668  0.00  0.00    +0.164 C 
ATOM      7  O   UNL     1       0.711   5.400  -7.039  0.00  0.00    -0.222 OA
ENDROOT
BRANCH   1   9
ATOM      8  C   UNL     1       3.923   6.100  -9.340  0.00  0.00    +0.002 C 
ATOM      9  C   UNL     1       3.647   5.315  -8.319  0.00  0.00    -0.026 C 
BRANCH   8  10
ATOM     10  C   UNL     1       4.081   5.265 -10.769  0.00  0.00    +0.174 C 
ATOM     11  O   UNL     1       2.560   5.412 -11.067  0.00  0.00    -0.218 OA
BRANCH  10  12
ATOM     12  C   UNL     1       4.525   6.679 -11.575  0.00  0.00    +0.037 C 
BRANCH  12  13
ATOM     13  C   UNL     1       5.371   7.481 -10.695  0.00  0.00    +0.003 C 
BRANCH  13  14
ATOM     14  C   UNL     1       6.737   7.663 -11.268  0.00  0.00    +0.000 C 
BRANCH  14  16
ATOM     15  C   UNL     1       7.565   6.154  -9.696  0.00  0.00    +0.000 C 
ATOM     16  C   UNL     1       7.705   6.567 -10.855  0.00  0.00    +0.000 C 
ENDBRANCH  14  16
ENDBRANCH  13  14
ENDBRANCH  12  13
ENDBRANCH  10  12
ENDBRANCH   8  10
ENDBRANCH   1   9
BRANCH   2  17
ATOM     17  C   UNL     1       3.917   7.194  -5.160  0.00  0.00    +0.033 C 
BRANCH  17  18
ATOM     18  C   UNL     1       5.029   7.392  -4.253  0.00  0.00    -0.030 C 
ATOM     19  C   UNL     1       4.776   8.037  -3.106  0.00  0.00    -0.031 C 
BRANCH  19  20
ATOM     20  C   UNL     1       3.563   7.612  -2.378  0.00  0.00    +0.026 C 
BRANCH  20  21
ATOM     21  C   UNL     1       3.870   6.883  -1.089  0.00  0.00    +0.016 C 
BRANCH  21  22
ATOM     22  C   UNL     1       4.178   5.436  -1.323  0.00  0.00    +0.114 C 
BRANCH  22  23
ATOM     23  C   UNL     1       3.028   4.535  -1.052  0.00  0.00    +0.365 C 
ATOM     24  O   UNL     1       1.700   4.980  -1.066  0.00  0.00    -0.246 OA
ATOM     25  O   UNL     1       3.298   3.420  -0.511  0.00  0.00    -0.246 OA
ENDBRANCH  22  23
ENDBRANCH  21  22
ENDBRANCH  20  21
ENDBRANCH  19  20
ENDBRANCH  17  18
ENDBRANCH   2  17
TORSDOF 12
ENDMDL
