MODEL 1
REMARK VINA RESULT:     -10.4      0.000      0.000
REMARK  Name = 
REMARK  12 active torsions:
REMARK  status: ('A' for Active; 'I' for Inactive)
REMARK    1  A    between atoms: C_2  and  C_5
REMARK    2  A    between atoms: C_10  and  C_11
REMARK    3  A    between atoms: C_11  and  C_12
REMARK    4  A    between atoms: C_12  and  C_13
REMARK    5  A    between atoms: C_13  and  S_14
REMARK    6  A    between atoms: C_13  and  C_23
REMARK    7  A    between atoms: S_14  and  C_15
REMARK    8  A    between atoms: C_15  and  C_16
REMARK    9  A    between atoms: C_16  and  C_17
REMARK   10  A    between atoms: C_17  and  C_18
REMARK   11  A    between atoms: C_27  and  C_28
REMARK   12  A    between atoms: C_29  and  C_30
REMARK                            x       y       z     vdW  Elec       q    Type
REMARK                         _______ _______ _______ _____ _____    ______ ____
ROOT
ATOM      1  C   UNL     1       0.154   5.021  -5.204  0.00  0.00    +0.070 C 
ENDROOT
BRANCH   1   2
ATOM      2  C   UNL     1       0.733   5.259  -6.638  0.00  0.00    -0.012 A 
ATOM      3  C   UNL     1       1.788   4.518  -7.078  0.00  0.00    -0.003 A 
ATOM      4  C   UNL     1       2.252   4.765  -8.365  0.00  0.00    -0.000 A 
ATOM      5  C   UNL     1       1.259   4.942  -9.322  0.00  0.00    -0.000 A 
ATOM      6  C   UNL     1       0.030   5.416  -8.918  0.00  0.00    -0.000 A 
ATOM      7  C   UNL     1      -0.228   5.607  -7.580  0.00  0.00    -0.003 A 
BRANCH   4   8
ATOM      8  C   UNL     1       3.637   4.539  -8.752  0.00  0.00    +0.002 C 
ATOM      9  C   UNL     1       4.652   5.270  -8.356  0.00  0.00    +0.019 C 
BRANCH   9  10
ATOM     10  C   UNL     1       5.627   5.874  -9.274  0.00  0.00    +0.081 A 
ATOM     11  N   UNL     1       5.218   5.996 -10.559  0.00  0.00    -0.245 NA
ATOM     12  C   UNL     1       6.060   5.839 -11.606  0.00  0.00    +0.082 A 
ATOM     13  C   UNL     1       7.362   5.461 -11.412  0.00  0.00    +0.018 A 
ATOM     14  C   UNL     1       8.190   5.365 -12.518  0.00  0.00    +0.002 A 
ATOM     15  C   UNL     1       7.746   5.821 -13.735  0.00  0.00    +0.011 A 
ATOM     16  C   UNL     1       6.535   6.483 -13.864  0.00  0.00    +0.059 A 
ATOM     17 CL   UNL     1       6.225   7.611 -15.176  0.00  0.00    -0.082 Cl
ATOM     18  C   UNL     1       7.866   5.467 -10.126  0.00  0.00    +0.003 A 
ATOM     19  C   UNL     1       5.620   6.290 -12.839  0.00  0.00    +0.030 A 
ATOM     20  C   UNL     1       6.985   5.684  -9.078  0.00  0.00    +0.019 A 
ENDBRANCH   9  10
ENDBRANCH   4   8
ENDBRANCH   1   2
BRANCH   1  21
ATOM     21  S   UNL     1      -1.493   5.948  -5.518  0.00  0.00    -0.137 S 
BRANCH  21  22
ATOM     22  C   UNL     1      -1.743   7.119  -4.184  0.00  0.00    +0.058 C 
BRANCH  22  23
ATOM     23  C   UNL     1      -2.283   6.507  -2.927  0.00  0.00    +0.021 C 
ATOM     24  C   UNL     1      -3.837   6.503  -2.921  0.00  0.00    +0.001 C 
ATOM     25  C   UNL     1      -3.049   5.252  -2.910  0.00  0.00    +0.001 C 
BRANCH  23  26
ATOM     26  C   UNL     1      -1.739   7.129  -1.659  0.00  0.00    +0.115 C 
BRANCH  26  27
ATOM     27  C   UNL     1      -1.088   6.038  -0.873  0.00  0.00    +0.365 C 
ATOM     28  O   UNL     1      -0.617   6.354   0.398  0.00  0.00    -0.246 OA
ATOM     29  O   UNL     1      -0.521   5.057  -1.440  0.00  0.00    -0.246 OA
ENDBRANCH  26  27
ENDBRANCH  23  26
ENDBRANCH  22  23
ENDBRANCH  21  22
ENDBRANCH   1  21
BRANCH   1  30
ATOM     30  C   UNL     1       0.880   6.283  -4.546  0.00  0.00    +0.020 C 
BRANCH  30  31
ATOM     31  C   UNL     1       1.862   5.765  -3.522  0.00  0.00    +0.027 C 
BRANCH  31  33
ATOM     32  C   UNL     1       3.872   6.595  -2.424  0.00  0.00    +0.001 A 
ATOM     33  C   UNL     1       3.008   6.727  -3.504  0.00  0.00    -0.024 A 
ATOM     34  C   UNL     1       3.485   7.177  -4.726  0.00  0.00    -0.005 A 
ATOM     35  C   UNL     1       4.834   7.477  -4.864  0.00  0.00    -0.000 A 
ATOM     36  C   UNL     1       5.712   7.310  -3.803  0.00  0.00    -0.000 A 
ATOM     37  C   UNL     1       5.173   7.064  -2.546  0.00  0.00    -0.002 A 
BRANCH  32  39
ATOM     38  C   UNL     1       2.493   7.126  -1.008  0.00  0.00    +0.038 C 
ATOM     39  C   UNL     1       3.240   6.565  -1.068  0.00  0.00    +0.145 C 
ATOM     40  O   UNL     1       2.898   5.237  -0.769  0.00  0.00    -0.221 OA
ATOM     41  C   UNL     1       4.349   6.936  -0.090  0.00  0.00    +0.038 C 
ENDBRANCH  32  39
ENDBRANCH  31  33
ENDBRANCH  30  31
ENDBRANCH   1  30
TORSDOF 12
ENDMDL
MODEL 2
REMARK VINA RESULT:     -10.1      1.418      4.506
REMARK  Name = 
REMARK  12 active torsions:
REMARK  status: ('A' for Active; 'I' for Inactive)
REMARK    1  A    between atoms: C_2  and  C_5
REMARK    2  A    between atoms: C_10  and  C_11
REMARK    3  A    between atoms: C_11  and  C_12
REMARK    4  A    between atoms: C_12  and  C_13
REMARK    5  A    between atoms: C_13  and  S_14
REMARK    6  A    between atoms: C_13  and  C_23
REMARK    7  A    between atoms: S_14  and  C_15
REMARK    8  A    between atoms: C_15  and  C_16
REMARK    9  A    between atoms: C_16  and  C_17
REMARK   10  A    between atoms: C_17  and  C_18
REMARK   11  A    between atoms: C_27  and  C_28
REMARK   12  A    between atoms: C_29  and  C_30
REMARK                            x       y       z     vdW  Elec       q    Type
REMARK                         _______ _______ _______ _____ _____    ______ ____
ROOT
ATOM      1  C   UNL     1       1.513   6.540  -4.411  0.00  0.00    +0.070 C 
ENDROOT
BRANCH   1   2
ATOM      2  C   UNL     1       0.928   6.382  -5.854  0.00  0.00    -0.012 A 
ATOM      3  C   UNL     1       1.640   5.723  -6.809  0.00  0.00    -0.003 A 
ATOM      4  C   UNL     1       1.066   5.603  -8.069  0.00  0.00    -0.000 A 
ATOM      5  C   UNL     1      -0.288   5.287  -8.068  0.00  0.00    -0.000 A 
ATOM      6  C   UNL     1      -1.051   5.659  -6.983  0.00  0.00    -0.000 A 
ATOM      7  C   UNL     1      -0.453   6.235  -5.886  0.00  0.00    -0.003 A 
BRANCH   4   8
ATOM      8  C   UNL     1       1.862   5.494  -9.283  0.00  0.00    +0.002 C 
ATOM      9  C   UNL     1       3.079   5.007  -9.337  0.00  0.00    +0.019 C 
BRANCH   9  10
ATOM     10  C   UNL     1       4.212   5.714  -9.951  0.00  0.00    +0.081 A 
ATOM     11  N   UNL     1       4.382   5.496 -11.277  0.00  0.00    -0.245 NA
ATOM     12  C   UNL     1       5.606   5.426 -11.848  0.00  0.00    +0.082 A 
ATOM     13  C   UNL     1       6.744   5.486 -11.087  0.00  0.00    +0.018 A 
ATOM     14  C   UNL     1       7.968   5.459 -11.733  0.00  0.00    +0.002 A 
ATOM     15  C   UNL     1       8.012   5.557 -13.102  0.00  0.00    +0.011 A 
ATOM     16  C   UNL     1       6.870   5.802 -13.849  0.00  0.00    +0.059 A 
ATOM     17 CL   UNL     1       6.937   6.557 -15.435  0.00  0.00    -0.082 Cl
ATOM     18  C   UNL     1       6.631   5.852  -9.760  0.00  0.00    +0.003 A 
ATOM     19  C   UNL     1       5.661   5.518 -13.228  0.00  0.00    +0.030 A 
ATOM     20  C   UNL     1       5.359   5.968  -9.218  0.00  0.00    +0.019 A 
ENDBRANCH   9  10
ENDBRANCH   4   8
ENDBRANCH   1   2
BRANCH   1  21
ATOM     21  S   UNL     1       3.007   5.375  -4.693  0.00  0.00    -0.137 S 
BRANCH  21  22
ATOM     22  C   UNL     1       4.106   5.517  -3.283  0.00  0.00    +0.058 C 
BRANCH  22  23
ATOM     23  C   UNL     1       4.646   6.898  -3.066  0.00  0.00    +0.021 C 
ATOM     24  C   UNL     1       5.931   7.142  -3.906  0.00  0.00    +0.001 C 
ATOM     25  C   UNL     1       4.691   7.917  -4.125  0.00  0.00    +0.001 C 
BRANCH  23  26
ATOM     26  C   UNL     1       4.877   7.245  -1.611  0.00  0.00    +0.115 C 
BRANCH  26  27
ATOM     27  C   UNL     1       3.568   7.095  -0.905  0.00  0.00    +0.365 C 
ATOM     28  O   UNL     1       2.788   8.236  -0.750  0.00  0.00    -0.246 OA
ATOM     29  O   UNL     1       3.372   6.175  -0.056  0.00  0.00    -0.246 OA
ENDBRANCH  26  27
ENDBRANCH  23  26
ENDBRANCH  22  23
ENDBRANCH  21  22
ENDBRANCH   1  21
BRANCH   1  30
ATOM     30  C   UNL     1       0.595   5.405  -3.761  0.00  0.00    +0.020 C 
BRANCH  30  31
ATOM     31  C   UNL     1       0.374   5.768  -2.312  0.00  0.00    +0.027 C 
BRANCH  31  33
ATOM     32  C   UNL     1      -1.634   6.755  -1.347  0.00  0.00    +0.001 A 
ATOM     33  C   UNL     1      -1.101   5.697  -2.073  0.00  0.00    -0.024 A 
ATOM     34  C   UNL     1      -1.873   5.050  -3.026  0.00  0.00    -0.005 A 
ATOM     35  C   UNL     1      -3.174   5.480  -3.260  0.00  0.00    -0.000 A 
ATOM     36  C   UNL     1      -3.699   6.561  -2.568  0.00  0.00    -0.000 A 
ATOM     37  C   UNL     1      -2.984   7.047  -1.481  0.00  0.00    -0.002 A 
BRANCH  32  39
ATOM     38  C   UNL     1      -0.146   6.617   0.053  0.00  0.00    +0.038 C 
ATOM     39  C   UNL     1      -0.947   7.086  -0.058  0.00  0.00    +0.145 C 
ATOM     40  O   UNL     1      -0.730   8.472  -0.017  0.00  0.00    -0.221 OA
ATOM     41  C   UNL     1      -1.969   6.797   1.037  0.00  0.00    +0.038 C 
ENDBRANCH  32  39
ENDBRANCH  31  33
ENDBRANCH  30  31
ENDBRANCH   1  30
TORSDOF 12
ENDMDL
MODEL 3
REMARK VINA RESULT:      -9.9      1.827      4.809
REMARK  Name = 
REMARK  12 active torsions:
REMARK  status: ('A' for Active; 'I' for Inactive)
REMARK    1  A    between atoms: C_2  and  C_5
REMARK    2  A    between atoms: C_10  and  C_11
REMARK    3  A    between atoms: C_11  and  C_12
REMARK    4  A    between atoms: C_12  and  C_13
REMARK    5  A    between atoms: C_13  and  S_14
REMARK    6  A    between atoms: C_13  and  C_23
REMARK    7  A    between atoms: S_14  and  C_15
REMARK    8  A    between atoms: C_15  and  C_16
REMARK    9  A    between atoms: C_16  and  C_17
REMARK   10  A    between atoms: C_17  and  C_18
REMARK   11  A    between atoms: C_27  and  C_28
REMARK   12  A    between atoms: C_29  and  C_30
REMARK                            x       y       z     vdW  Elec       q    Type
REMARK                         _______ _______ _______ _____ _____    ______ ____
ROOT
ATOM      1  C   UNL     1       2.329   6.692  -2.586  0.00  0.00    +0.070 C 
ENDROOT
BRANCH   1   2
ATOM      2  C   UNL     1       3.098   5.900  -3.695  0.00  0.00    -0.012 A 
ATOM      3  C   UNL     1       3.378   6.496  -4.887  0.00  0.00    -0.003 A 
ATOM      4  C   UNL     1       4.074   5.748  -5.830  0.00  0.00    -0.000 A 
ATOM      5  C   UNL     1       5.129   5.000  -5.321  0.00  0.00    -0.000 A 
ATOM      6  C   UNL     1       5.076   4.594  -4.005  0.00  0.00    -0.000 A 
ATOM      7  C   UNL     1       4.046   5.015  -3.196  0.00  0.00    -0.003 A 
BRANCH   4   8
ATOM      8  C   UNL     1       3.931   5.968  -7.262  0.00  0.00    +0.002 C 
ATOM      9  C   UNL     1       4.546   5.273  -8.189  0.00  0.00    +0.019 C 
BRANCH   9  10
ATOM     10  C   UNL     1       5.334   5.879  -9.271  0.00  0.00    +0.081 A 
ATOM     11  N   UNL     1       4.817   5.741 -10.515  0.00  0.00    -0.245 NA
ATOM     12  C   UNL     1       5.594   5.563 -11.608  0.00  0.00    +0.082 A 
ATOM     13  C   UNL     1       6.952   5.428 -11.492  0.00  0.00    +0.018 A 
ATOM     14  C   UNL     1       7.700   5.299 -12.650  0.00  0.00    +0.002 A 
ATOM     15  C   UNL     1       7.097   5.492 -13.868  0.00  0.00    +0.011 A 
ATOM     16  C   UNL     1       5.785   5.928 -13.968  0.00  0.00    +0.059 A 
ATOM     17 CL   UNL     1       5.192   6.783 -15.385  0.00  0.00    -0.082 Cl
ATOM     18  C   UNL     1       7.541   5.707 -10.274  0.00  0.00    +0.003 A 
ATOM     19  C   UNL     1       4.994   5.749 -12.841  0.00  0.00    +0.030 A 
ATOM     20  C   UNL     1       6.715   5.937  -9.184  0.00  0.00    +0.019 A 
ENDBRANCH   9  10
ENDBRANCH   4   8
ENDBRANCH   1   2
BRANCH   1  21
ATOM     21  S   UNL     1       3.090   5.729  -1.116  0.00  0.00    -0.137 S 
BRANCH  21  22
ATOM     22  C   UNL     1       3.958   6.896  -0.066  0.00  0.00    +0.058 C 
BRANCH  22  23
ATOM     23  C   UNL     1       3.183   8.145   0.229  0.00  0.00    +0.021 C 
ATOM     24  C   UNL     1       4.125   9.312   0.638  0.00  0.00    +0.001 C 
ATOM     25  C   UNL     1       3.293   9.367  -0.582  0.00  0.00    +0.001 C 
BRANCH  23  26
ATOM     26  C   UNL     1       2.080   7.957   1.248  0.00  0.00    +0.115 C 
BRANCH  26  27
ATOM     27  C   UNL     1       0.785   8.243   0.558  0.00  0.00    +0.365 C 
ATOM     28  O   UNL     1       0.193   9.480   0.791  0.00  0.00    -0.246 OA
ATOM     29  O   UNL     1      -0.003   7.313   0.211  0.00  0.00    -0.246 OA
ENDBRANCH  26  27
ENDBRANCH  23  26
ENDBRANCH  22  23
ENDBRANCH  21  22
ENDBRANCH   1  21
BRANCH   1  30
ATOM     30  C   UNL     1       1.012   5.791  -2.654  0.00  0.00    +0.020 C 
BRANCH  30  31
ATOM     31  C   UNL     1      -0.082   6.623  -3.280  0.00  0.00    +0.027 C 
BRANCH  31  33
ATOM     32  C   UNL     1      -2.112   5.908  -4.421  0.00  0.00    +0.001 A 
ATOM     33  C   UNL     1      -0.735   5.762  -4.314  0.00  0.00    -0.024 A 
ATOM     34  C   UNL     1       0.016   5.419  -5.429  0.00  0.00    -0.005 A 
ATOM     35  C   UNL     1      -0.618   5.242  -6.652  0.00  0.00    -0.000 A 
ATOM     36  C   UNL     1      -1.987   5.426  -6.776  0.00  0.00    -0.000 A 
ATOM     37  C   UNL     1      -2.733   5.558  -5.611  0.00  0.00    -0.002 A 
BRANCH  32  39
ATOM     38  C   UNL     1      -3.805   5.684  -3.291  0.00  0.00    +0.038 C 
ATOM     39  C   UNL     1      -2.890   5.811  -3.145  0.00  0.00    +0.145 C 
ATOM     40  O   UNL     1      -2.352   4.765  -2.378  0.00  0.00    -0.221 OA
ATOM     41  C   UNL     1      -2.576   7.089  -2.376  0.00  0.00    +0.038 C 
ENDBRANCH  32  39
ENDBRANCH  31  33
ENDBRANCH  30  31
ENDBRANCH   1  30
TORSDOF 12
ENDMDL
MODEL 4
REMARK VINA RESULT:      -9.8      2.153      5.066
REMARK  Name = 
REMARK  12 active torsions:
REMARK  status: ('A' for Active; 'I' for Inactive)
REMARK    1  A    between atoms: C_2  and  C_5
REMARK    2  A    between atoms: C_10  and  C_11
REMARK    3  A    between atoms: C_11  and  C_12
REMARK    4  A    between atoms: C_12  and  C_13
REMARK    5  A    between atoms: C_13  and  S_14
REMARK    6  A    between atoms: C_13  and  C_23
REMARK    7  A    between atoms: S_14  and  C_15
REMARK    8  A    between atoms: C_15  and  C_16
REMARK    9  A    between atoms: C_16  and  C_17
REMARK   10  A    between atoms: C_17  and  C_18
REMARK   11  A    between atoms: C_27  and  C_28
REMARK   12  A    between atoms: C_29  and  C_30
REMARK                            x       y       z     vdW  Elec       q    Type
REMARK                         _______ _______ _______ _____ _____    ______ ____
ROOT
ATOM      1  C   UNL     1       2.209   7.102  -2.947  0.00  0.00    +0.070 C 
ENDROOT
BRANCH   1   2
ATOM      2  C   UNL     1       2.976   6.169  -3.943  0.00  0.00    -0.012 A 
ATOM      3  C   UNL     1       3.322   6.628  -5.177  0.00  0.00    -0.003 A 
ATOM      4  C   UNL     1       4.013   5.759  -6.014  0.00  0.00    -0.000 A 
ATOM      5  C   UNL     1       5.015   5.023  -5.395  0.00  0.00    -0.000 A 
ATOM      6  C   UNL     1       4.901   4.755  -4.048  0.00  0.00    -0.000 A 
ATOM      7  C   UNL     1       3.866   5.300  -3.323  0.00  0.00    -0.003 A 
BRANCH   4   8
ATOM      8  C   UNL     1       3.927   5.839  -7.465  0.00  0.00    +0.002 C 
ATOM      9  C   UNL     1       4.705   5.188  -8.296  0.00  0.00    +0.019 C 
BRANCH   9  10
ATOM     10  C   UNL     1       5.450   5.831  -9.387  0.00  0.00    +0.081 A 
ATOM     11  N   UNL     1       4.902   5.704 -10.619  0.00  0.00    -0.245 NA
ATOM     12  C   UNL     1       5.653   5.565 -11.736  0.00  0.00    +0.082 A 
ATOM     13  C   UNL     1       7.017   5.458 -11.659  0.00  0.00    +0.018 A 
ATOM     14  C   UNL     1       7.735   5.366 -12.839  0.00  0.00    +0.002 A 
ATOM     15  C   UNL     1       7.095   5.568 -14.037  0.00  0.00    +0.011 A 
ATOM     16  C   UNL     1       5.772   5.977 -14.093  0.00  0.00    +0.059 A 
ATOM     17 CL   UNL     1       5.122   6.845 -15.477  0.00  0.00    -0.082 Cl
ATOM     18  C   UNL     1       7.632   5.726 -10.452  0.00  0.00    +0.003 A 
ATOM     19  C   UNL     1       5.016   5.760 -12.949  0.00  0.00    +0.030 A 
ATOM     20  C   UNL     1       6.831   5.918  -9.336  0.00  0.00    +0.019 A 
ENDBRANCH   9  10
ENDBRANCH   4   8
ENDBRANCH   1   2
BRANCH   1  21
ATOM     21  S   UNL     1       3.703   7.393  -1.785  0.00  0.00    -0.137 S 
BRANCH  21  22
ATOM     22  C   UNL     1       3.643   9.088  -1.205  0.00  0.00    +0.058 C 
BRANCH  22  23
ATOM     23  C   UNL     1       3.214   9.231   0.224  0.00  0.00    +0.021 C 
ATOM     24  C   UNL     1       2.533  10.606   0.476  0.00  0.00    +0.001 C 
ATOM     25  C   UNL     1       1.804   9.329   0.631  0.00  0.00    +0.001 C 
BRANCH  23  26
ATOM     26  C   UNL     1       4.321   8.984   1.225  0.00  0.00    +0.115 C 
BRANCH  26  27
ATOM     27  C   UNL     1       4.103   7.621   1.800  0.00  0.00    +0.365 C 
ATOM     28  O   UNL     1       3.427   7.537   3.013  0.00  0.00    -0.246 OA
ATOM     29  O   UNL     1       4.881   6.656   1.536  0.00  0.00    -0.246 OA
ENDBRANCH  26  27
ENDBRANCH  23  26
ENDBRANCH  22  23
ENDBRANCH  21  22
ENDBRANCH   1  21
BRANCH   1  30
ATOM     30  C   UNL     1       1.603   5.910  -2.073  0.00  0.00    +0.020 C 
BRANCH  30  31
ATOM     31  C   UNL     1       0.543   5.225  -2.902  0.00  0.00    +0.027 C 
BRANCH  31  33
ATOM     32  C   UNL     1      -1.522   5.979  -3.953  0.00  0.00    +0.001 A 
ATOM     33  C   UNL     1      -0.663   6.110  -2.869  0.00  0.00    -0.024 A 
ATOM     34  C   UNL     1      -1.162   6.464  -1.625  0.00  0.00    -0.005 A 
ATOM     35  C   UNL     1      -2.528   6.668  -1.469  0.00  0.00    -0.000 A 
ATOM     36  C   UNL     1      -3.397   6.500  -2.536  0.00  0.00    -0.000 A 
ATOM     37  C   UNL     1      -2.849   6.355  -3.805  0.00  0.00    -0.002 A 
BRANCH  32  39
ATOM     38  C   UNL     1      -0.448   6.871  -5.450  0.00  0.00    +0.038 C 
ATOM     39  C   UNL     1      -0.895   6.061  -5.310  0.00  0.00    +0.145 C 
ATOM     40  O   UNL     1      -0.022   4.972  -5.460  0.00  0.00    -0.221 OA
ATOM     41  C   UNL     1      -2.028   5.820  -6.301  0.00  0.00    +0.038 C 
ENDBRANCH  32  39
ENDBRANCH  31  33
ENDBRANCH  30  31
ENDBRANCH   1  30
TORSDOF 12
ENDMDL
MODEL 5
REMARK VINA RESULT:      -9.7      4.317      9.424
REMARK  Name = 
REMARK  12 active torsions:
REMARK  status: ('A' for Active; 'I' for Inactive)
REMARK    1  A    between atoms: C_2  and  C_5
REMARK    2  A    between atoms: C_10  and  C_11
REMARK    3  A    between atoms: C_11  and  C_12
REMARK    4  A    between atoms: C_12  and  C_13
REMARK    5  A    between atoms: C_13  and  S_14
REMARK    6  A    between atoms: C_13  and  C_23
REMARK    7  A    between atoms: S_14  and  C_15
REMARK    8  A    between atoms: C_15  and  C_16
REMARK    9  A    between atoms: C_16  and  C_17
REMARK   10  A    between atoms: C_17  and  C_18
REMARK   11  A    between atoms: C_27  and  C_28
REMARK   12  A    between atoms: C_29  and  C_30
REMARK                            x       y       z     vdW  Elec       q    Type
REMARK                         _______ _______ _______ _____ _____    ______ ____
ROOT
ATOM      1  C   UNL     1       2.336   6.929  -6.486  0.00  0.00    +0.070 C 
ENDROOT
BRANCH   1   2
ATOM      2  C   UNL     1       3.410   6.659  -5.380  0.00  0.00    -0.012 A 
ATOM      3  C   UNL     1       3.154   6.997  -4.086  0.00  0.00    -0.003 A 
ATOM      4  C   UNL     1       4.140   6.723  -3.145  0.00  0.00    -0.000 A 
ATOM      5  C   UNL     1       4.755   5.485  -3.285  0.00  0.00    -0.000 A 
ATOM      6  C   UNL     1       4.801   4.908  -4.536  0.00  0.00    -0.000 A 
ATOM      7  C   UNL     1       4.157   5.507  -5.594  0.00  0.00    -0.003 A 
BRANCH   4   8
ATOM      8  C   UNL     1       4.299   7.508  -1.929  0.00  0.00    +0.002 C 
ATOM      9  C   UNL     1       4.290   7.012  -0.715  0.00  0.00    +0.019 C 
BRANCH   9  10
ATOM     10  C   UNL     1       3.429   7.515   0.364  0.00  0.00    +0.081 A 
ATOM     11  N   UNL     1       2.149   7.072   0.340  0.00  0.00    -0.245 NA
ATOM     12  C   UNL     1       1.106   7.851   0.709  0.00  0.00    +0.082 A 
ATOM     13  C   UNL     1       1.292   9.166   1.045  0.00  0.00    +0.018 A 
ATOM     14  C   UNL     1       0.194   9.899   1.461  0.00  0.00    +0.002 A 
ATOM     15  C   UNL     1      -0.996   9.256   1.700  0.00  0.00    +0.011 A 
ATOM     16  C   UNL     1      -1.098   7.874   1.650  0.00  0.00    +0.059 A 
ATOM     17 CL   UNL     1      -2.335   6.997   2.539  0.00  0.00    -0.082 Cl
ATOM     18  C   UNL     1       2.582   9.624   1.227  0.00  0.00    +0.003 A 
ATOM     19  C   UNL     1      -0.100   7.213   0.947  0.00  0.00    +0.030 A 
ATOM     20  C   UNL     1       3.631   8.780   0.890  0.00  0.00    +0.019 A 
ENDBRANCH   9  10
ENDBRANCH   4   8
ENDBRANCH   1   2
BRANCH   1  21
ATOM     21  S   UNL     1       0.908   6.039  -5.571  0.00  0.00    -0.137 S 
BRANCH  21  22
ATOM     22  C   UNL     1      -0.267   7.278  -5.022  0.00  0.00    +0.058 C 
BRANCH  22  23
ATOM     23  C   UNL     1      -1.574   6.715  -4.551  0.00  0.00    +0.021 C 
ATOM     24  C   UNL     1      -2.759   7.240  -5.409  0.00  0.00    +0.001 C 
ATOM     25  C   UNL     1      -2.396   5.808  -5.366  0.00  0.00    +0.001 C 
BRANCH  23  26
ATOM     26  C   UNL     1      -1.837   6.926  -3.076  0.00  0.00    +0.115 C 
BRANCH  26  27
ATOM     27  C   UNL     1      -1.751   5.589  -2.413  0.00  0.00    +0.365 C 
ATOM     28  O   UNL     1      -0.501   4.983  -2.351  0.00  0.00    -0.246 OA
ATOM     29  O   UNL     1      -2.745   4.805  -2.366  0.00  0.00    -0.246 OA
ENDBRANCH  26  27
ENDBRANCH  23  26
ENDBRANCH  22  23
ENDBRANCH  21  22
ENDBRANCH   1  21
BRANCH   1  30
ATOM     30  C   UNL     1       2.723   5.658  -7.374  0.00  0.00    +0.020 C 
BRANCH  30  31
ATOM     31  C   UNL     1       1.730   5.570  -8.507  0.00  0.00    +0.027 C 
BRANCH  31  33
ATOM     32  C   UNL     1       2.008   5.738 -10.922  0.00  0.00    +0.001 A 
ATOM     33  C   UNL     1       2.512   5.221  -9.734  0.00  0.00    -0.024 A 
ATOM     34  C   UNL     1       3.875   5.017  -9.587  0.00  0.00    -0.005 A 
ATOM     35  C   UNL     1       4.732   5.350 -10.630  0.00  0.00    -0.000 A 
ATOM     36  C   UNL     1       4.243   5.903 -11.803  0.00  0.00    -0.000 A 
ATOM     37  C   UNL     1       2.867   5.897 -12.000  0.00  0.00    -0.002 A 
BRANCH  32  39
ATOM     38  C   UNL     1       0.403   5.085 -12.012  0.00  0.00    +0.038 C 
ATOM     39  C   UNL     1       0.554   5.497 -11.186  0.00  0.00    +0.145 C 
ATOM     40  O   UNL     1       0.037   4.722 -10.136  0.00  0.00    -0.221 OA
ATOM     41  C   UNL     1      -0.116   6.860 -11.062  0.00  0.00    +0.038 C 
ENDBRANCH  32  39
ENDBRANCH  31  33
ENDBRANCH  30  31
ENDBRANCH   1  30
TORSDOF 12
ENDMDL
MODEL 6
REMARK VINA RESULT:      -9.7      1.585      3.159
REMARK  Name = 
REMARK  12 active torsions:
REMARK  status: ('A' for Active; 'I' for Inactive)
REMARK    1  A    between atoms: C_2  and  C_5
REMARK    2  A    between atoms: C_10  and  C_11
REMARK    3  A    between atoms: C_11  and  C_12
REMARK    4  A    between atoms: C_12  and  C_13
REMARK    5  A    between atoms: C_13  and  S_14
REMARK    6  A    between atoms: C_13  and  C_23
REMARK    7  A    between atoms: S_14  and  C_15
REMARK    8  A    between atoms: C_15  and  C_16
REMARK    9  A    between atoms: C_16  and  C_17
REMARK   10  A    between atoms: C_17  and  C_18
REMARK   11  A    between atoms: C_27  and  C_28
REMARK   12  A    between atoms: C_29  and  C_30
REMARK                            x       y       z     vdW  Elec       q    Type
REMARK                         _______ _______ _______ _____ _____    ______ ____
ROOT
ATOM      1  C   UNL     1       1.057   5.401  -3.637  0.00  0.00    +0.070 C 
ENDROOT
BRANCH   1   2
ATOM      2  C   UNL     1       2.392   5.195  -4.428  0.00  0.00    -0.012 A 
ATOM      3  C   UNL     1       2.524   5.702  -5.685  0.00  0.00    -0.003 A 
ATOM      4  C   UNL     1       3.737   5.499  -6.334  0.00  0.00    -0.000 A 
ATOM      5  C   UNL     1       4.864   5.680  -5.541  0.00  0.00    -0.000 A 
ATOM      6  C   UNL     1       4.754   5.476  -4.182  0.00  0.00    -0.000 A 
ATOM      7  C   UNL     1       3.526   5.202  -3.625  0.00  0.00    -0.003 A 
BRANCH   4   8
ATOM      8  C   UNL     1       3.843   5.423  -7.784  0.00  0.00    +0.002 C 
ATOM      9  C   UNL     1       4.876   4.940  -8.433  0.00  0.00    +0.019 C 
BRANCH   9  10
ATOM     10  C   UNL     1       5.577   5.664  -9.502  0.00  0.00    +0.081 A 
ATOM     11  N   UNL     1       5.026   5.558 -10.734  0.00  0.00    -0.245 NA
ATOM     12  C   UNL     1       5.773   5.503 -11.860  0.00  0.00    +0.082 A 
ATOM     13  C   UNL     1       7.141   5.464 -11.797  0.00  0.00    +0.018 A 
ATOM     14  C   UNL     1       7.854   5.458 -12.984  0.00  0.00    +0.002 A 
ATOM     15  C   UNL     1       7.194   5.673 -14.169  0.00  0.00    +0.011 A 
ATOM     16  C   UNL     1       5.851   6.014 -14.200  0.00  0.00    +0.059 A 
ATOM     17 CL   UNL     1       5.145   6.902 -15.543  0.00  0.00    -0.082 Cl
ATOM     18  C   UNL     1       7.752   5.716 -10.585  0.00  0.00    +0.003 A 
ATOM     19  C   UNL     1       5.117   5.713 -13.061  0.00  0.00    +0.030 A 
ATOM     20  C   UNL     1       6.952   5.821  -9.456  0.00  0.00    +0.019 A 
ENDBRANCH   9  10
ENDBRANCH   4   8
ENDBRANCH   1   2
BRANCH   1  21
ATOM     21  S   UNL     1       0.405   6.816  -4.751  0.00  0.00    -0.137 S 
BRANCH  21  22
ATOM     22  C   UNL     1      -1.370   6.938  -4.524  0.00  0.00    +0.058 C 
BRANCH  22  23
ATOM     23  C   UNL     1      -2.138   5.775  -5.074  0.00  0.00    +0.021 C 
ATOM     24  C   UNL     1      -2.819   6.133  -6.424  0.00  0.00    +0.001 C 
ATOM     25  C   UNL     1      -1.774   5.093  -6.325  0.00  0.00    +0.001 C 
BRANCH  23  26
ATOM     26  C   UNL     1      -3.138   5.185  -4.102  0.00  0.00    +0.115 C 
BRANCH  26  27
ATOM     27  C   UNL     1      -2.825   5.741  -2.750  0.00  0.00    +0.365 C 
ATOM     28  O   UNL     1      -2.092   4.939  -1.881  0.00  0.00    -0.246 OA
ATOM     29  O   UNL     1      -3.561   6.614  -2.203  0.00  0.00    -0.246 OA
ENDBRANCH  26  27
ENDBRANCH  23  26
ENDBRANCH  22  23
ENDBRANCH  21  22
ENDBRANCH   1  21
BRANCH   1  30
ATOM     30  C   UNL     1       1.688   6.384  -2.547  0.00  0.00    +0.020 C 
BRANCH  30  31
ATOM     31  C   UNL     1       1.794   5.621  -1.249  0.00  0.00    +0.027 C 
BRANCH  31  33
ATOM     32  C   UNL     1       2.591   7.556  -0.001  0.00  0.00    +0.001 A 
ATOM     33  C   UNL     1       1.580   6.615  -0.151  0.00  0.00    -0.024 A 
ATOM     34  C   UNL     1       0.272   6.942   0.169  0.00  0.00    -0.005 A 
ATOM     35  C   UNL     1      -0.021   8.223   0.623  0.00  0.00    -0.000 A 
ATOM     36  C   UNL     1       0.975   9.181   0.736  0.00  0.00    -0.000 A 
ATOM     37  C   UNL     1       2.295   8.764   0.614  0.00  0.00    -0.002 A 
BRANCH  32  39
ATOM     38  C   UNL     1       4.403   7.243   0.898  0.00  0.00    +0.038 C 
ATOM     39  C   UNL     1       3.987   7.022   0.091  0.00  0.00    +0.145 C 
ATOM     40  O   UNL     1       3.940   5.630  -0.087  0.00  0.00    -0.221 OA
ATOM     41  C   UNL     1       4.716   7.569  -1.131  0.00  0.00    +0.038 C 
ENDBRANCH  32  39
ENDBRANCH  31  33
ENDBRANCH  30  31
ENDBRANCH   1  30
TORSDOF 12
ENDMDL
MODEL 7
REMARK VINA RESULT:      -9.4      2.314      5.300
REMARK  Name = 
REMARK  12 active torsions:
REMARK  status: ('A' for Active; 'I' for Inactive)
REMARK    1  A    between atoms: C_2  and  C_5
REMARK    2  A    between atoms: C_10  and  C_11
REMARK    3  A    between atoms: C_11  and  C_12
REMARK    4  A    between atoms: C_12  and  C_13
REMARK    5  A    between atoms: C_13  and  S_14
REMARK    6  A    between atoms: C_13  and  C_23
REMARK    7  A    between atoms: S_14  and  C_15
REMARK    8  A    between atoms: C_15  and  C_16
REMARK    9  A    between atoms: C_16  and  C_17
REMARK   10  A    between atoms: C_17  and  C_18
REMARK   11  A    between atoms: C_27  and  C_28
REMARK   12  A    between atoms: C_29  and  C_30
REMARK                            x       y       z     vdW  Elec       q    Type
REMARK                         _______ _______ _______ _____ _____    ______ ____
ROOT
ATOM      1  C   UNL     1       2.349   6.969  -2.028  0.00  0.00    +0.070 C 
ENDROOT
BRANCH   1   2
ATOM      2  C   UNL     1       2.977   6.205  -3.242  0.00  0.00    -0.012 A 
ATOM      3  C   UNL     1       3.125   6.836  -4.440  0.00  0.00    -0.003 A 
ATOM      4  C   UNL     1       3.699   6.112  -5.478  0.00  0.00    -0.000 A 
ATOM      5  C   UNL     1       4.797   5.340  -5.117  0.00  0.00    -0.000 A 
ATOM      6  C   UNL     1       4.890   4.893  -3.817  0.00  0.00    -0.000 A 
ATOM      7  C   UNL     1       3.965   5.297  -2.882  0.00  0.00    -0.003 A 
BRANCH   4   8
ATOM      8  C   UNL     1       3.395   6.379  -6.877  0.00  0.00    +0.002 C 
ATOM      9  C   UNL     1       3.010   5.472  -7.743  0.00  0.00    +0.019 C 
BRANCH   9  10
ATOM     10  C   UNL     1       3.657   5.264  -9.046  0.00  0.00    +0.081 A 
ATOM     11  N   UNL     1       4.973   5.579  -9.098  0.00  0.00    -0.245 NA
ATOM     12  C   UNL     1       5.545   6.123 -10.197  0.00  0.00    +0.082 A 
ATOM     13  C   UNL     1       4.791   6.463 -11.288  0.00  0.00    +0.018 A 
ATOM     14  C   UNL     1       5.439   6.970 -12.402  0.00  0.00    +0.002 A 
ATOM     15  C   UNL     1       6.811   6.947 -12.453  0.00  0.00    +0.011 A 
ATOM     16  C   UNL     1       7.564   6.322 -11.471  0.00  0.00    +0.059 A 
ATOM     17 CL   UNL     1       9.181   5.708 -11.785  0.00  0.00    -0.082 Cl
ATOM     18  C   UNL     1       3.481   6.031 -11.345  0.00  0.00    +0.003 A 
ATOM     19  C   UNL     1       6.928   6.110 -10.256  0.00  0.00    +0.030 A 
ATOM     20  C   UNL     1       2.940   5.428 -10.219  0.00  0.00    +0.019 A 
ENDBRANCH   9  10
ENDBRANCH   4   8
ENDBRANCH   1   2
BRANCH   1  21
ATOM     21  S   UNL     1       3.776   6.577  -0.812  0.00  0.00    -0.137 S 
BRANCH  21  22
ATOM     22  C   UNL     1       3.627   7.669   0.602  0.00  0.00    +0.058 C 
BRANCH  22  23
ATOM     23  C   UNL     1       2.964   8.978   0.296  0.00  0.00    +0.021 C 
ATOM     24  C   UNL     1       3.813  10.176   0.807  0.00  0.00    +0.001 C 
ATOM     25  C   UNL     1       3.534   9.968  -0.630  0.00  0.00    +0.001 C 
BRANCH  23  26
ATOM     26  C   UNL     1       1.538   9.075   0.792  0.00  0.00    +0.115 C 
BRANCH  26  27
ATOM     27  C   UNL     1       1.363   8.034   1.850  0.00  0.00    +0.365 C 
ATOM     28  O   UNL     1       0.484   6.989   1.584  0.00  0.00    -0.246 OA
ATOM     29  O   UNL     1       1.555   8.293   3.076  0.00  0.00    -0.246 OA
ENDBRANCH  26  27
ENDBRANCH  23  26
ENDBRANCH  22  23
ENDBRANCH  21  22
ENDBRANCH   1  21
BRANCH   1  30
ATOM     30  C   UNL     1       1.439   5.747  -1.546  0.00  0.00    +0.020 C 
BRANCH  30  31
ATOM     31  C   UNL     1       0.625   5.287  -2.731  0.00  0.00    +0.027 C 
BRANCH  31  33
ATOM     32  C   UNL     1      -1.425   5.957  -3.866  0.00  0.00    +0.001 A 
ATOM     33  C   UNL     1      -0.611   6.131  -2.754  0.00  0.00    -0.024 A 
ATOM     34  C   UNL     1      -1.167   6.484  -1.534  0.00  0.00    -0.005 A 
ATOM     35  C   UNL     1      -2.543   6.643  -1.430  0.00  0.00    -0.000 A 
ATOM     36  C   UNL     1      -3.367   6.432  -2.526  0.00  0.00    -0.000 A 
ATOM     37  C   UNL     1      -2.768   6.290  -3.772  0.00  0.00    -0.002 A 
BRANCH  32  39
ATOM     38  C   UNL     1      -0.302   6.854  -5.324  0.00  0.00    +0.038 C 
ATOM     39  C   UNL     1      -0.751   6.043  -5.201  0.00  0.00    +0.145 C 
ATOM     40  O   UNL     1       0.129   4.957  -5.322  0.00  0.00    -0.221 OA
ATOM     41  C   UNL     1      -1.849   5.801  -6.230  0.00  0.00    +0.038 C 
ENDBRANCH  32  39
ENDBRANCH  31  33
ENDBRANCH  30  31
ENDBRANCH   1  30
TORSDOF 12
ENDMDL
MODEL 8
REMARK VINA RESULT:      -9.4      2.664      4.398
REMARK  Name = 
REMARK  12 active torsions:
REMARK  status: ('A' for Active; 'I' for Inactive)
REMARK    1  A    between atoms: C_2  and  C_5
REMARK    2  A    between atoms: C_10  and  C_11
REMARK    3  A    between atoms: C_11  and  C_12
REMARK    4  A    between atoms: C_12  and  C_13
REMARK    5  A    between atoms: C_13  and  S_14
REMARK    6  A    between atoms: C_13  and  C_23
REMARK    7  A    between atoms: S_14  and  C_15
REMARK    8  A    between atoms: C_15  and  C_16
REMARK    9  A    between atoms: C_16  and  C_17
REMARK   10  A    between atoms: C_17  and  C_18
REMARK   11  A    between atoms: C_27  and  C_28
REMARK   12  A    between atoms: C_29  and  C_30
REMARK                            x       y       z     vdW  Elec       q    Type
REMARK                         _______ _______ _______ _____ _____    ______ ____
ROOT
ATOM      1  C   UNL     1       2.950   5.675  -1.343  0.00  0.00    +0.070 C 
ENDROOT
BRANCH   1   2
ATOM      2  C   UNL     1       3.631   6.018  -2.709  0.00  0.00    -0.012 A 
ATOM      3  C   UNL     1       2.888   6.062  -3.849  0.00  0.00    -0.003 A 
ATOM      4  C   UNL     1       3.544   6.384  -5.031  0.00  0.00    -0.000 A 
ATOM      5  C   UNL     1       4.462   7.422  -4.927  0.00  0.00    -0.000 A 
ATOM      6  C   UNL     1       5.061   7.654  -3.707  0.00  0.00    -0.000 A 
ATOM      7  C   UNL     1       4.672   6.933  -2.602  0.00  0.00    -0.003 A 
BRANCH   4   8
ATOM      8  C   UNL     1       3.091   5.910  -6.331  0.00  0.00    +0.002 C 
ATOM      9  C   UNL     1       3.676   4.964  -7.026  0.00  0.00    +0.019 C 
BRANCH   9  10
ATOM     10  C   UNL     1       4.079   5.117  -8.431  0.00  0.00    +0.081 A 
ATOM     11  N   UNL     1       5.412   5.231  -8.643  0.00  0.00    -0.245 NA
ATOM     12  C   UNL     1       5.926   6.024  -9.611  0.00  0.00    +0.082 A 
ATOM     13  C   UNL     1       5.115   6.823 -10.372  0.00  0.00    +0.018 A 
ATOM     14  C   UNL     1       5.693   7.576 -11.380  0.00  0.00    +0.002 A 
ATOM     15  C   UNL     1       7.010   7.368 -11.707  0.00  0.00    +0.011 A 
ATOM     16  C   UNL     1       7.747   6.341 -11.136  0.00  0.00    +0.059 A 
ATOM     17 CL   UNL     1       9.142   5.636 -11.940  0.00  0.00    -0.082 Cl
ATOM     18  C   UNL     1       3.748   6.638 -10.297  0.00  0.00    +0.003 A 
ATOM     19  C   UNL     1       7.255   5.826  -9.945  0.00  0.00    +0.030 A 
ATOM     20  C   UNL     1       3.256   5.776  -9.329  0.00  0.00    +0.019 A 
ENDBRANCH   9  10
ENDBRANCH   4   8
ENDBRANCH   1   2
BRANCH   1  21
ATOM     21  S   UNL     1       1.300   5.075  -2.110  0.00  0.00    -0.137 S 
BRANCH  21  22
ATOM     22  C   UNL     1      -0.033   6.052  -1.413  0.00  0.00    +0.058 C 
BRANCH  22  23
ATOM     23  C   UNL     1      -1.171   6.295  -2.357  0.00  0.00    +0.021 C 
ATOM     24  C   UNL     1      -2.525   5.848  -1.740  0.00  0.00    +0.001 C 
ATOM     25  C   UNL     1      -2.248   7.258  -2.084  0.00  0.00    +0.001 C 
BRANCH  23  26
ATOM     26  C   UNL     1      -0.972   5.685  -3.728  0.00  0.00    +0.115 C 
BRANCH  26  27
ATOM     27  C   UNL     1      -1.115   6.785  -4.730  0.00  0.00    +0.365 C 
ATOM     28  O   UNL     1      -2.224   6.750  -5.568  0.00  0.00    -0.246 OA
ATOM     29  O   UNL     1      -0.108   7.413  -5.176  0.00  0.00    -0.246 OA
ENDBRANCH  26  27
ENDBRANCH  23  26
ENDBRANCH  22  23
ENDBRANCH  21  22
ENDBRANCH   1  21
BRANCH   1  30
ATOM     30  C   UNL     1       2.425   7.159  -1.068  0.00  0.00    +0.020 C 
BRANCH  30  31
ATOM     31  C   UNL     1       2.880   7.557   0.315  0.00  0.00    +0.027 C 
BRANCH  31  33
ATOM     32  C   UNL     1       2.317   9.524   1.639  0.00  0.00    +0.001 A 
ATOM     33  C   UNL     1       2.730   9.043   0.402  0.00  0.00    -0.024 A 
ATOM     34  C   UNL     1       3.549   9.817  -0.406  0.00  0.00    -0.005 A 
ATOM     35  C   UNL     1       3.965  11.066   0.039  0.00  0.00    -0.000 A 
ATOM     36  C   UNL     1       3.591  11.536   1.288  0.00  0.00    -0.000 A 
ATOM     37  C   UNL     1       2.607  10.838   1.978  0.00  0.00    -0.002 A 
BRANCH  32  39
ATOM     38  C   UNL     1       0.411   8.776   1.608  0.00  0.00    +0.038 C 
ATOM     39  C   UNL     1       1.102   8.877   2.229  0.00  0.00    +0.145 C 
ATOM     40  O   UNL     1       1.480   7.636   2.767  0.00  0.00    -0.221 OA
ATOM     41  C   UNL     1       0.716   9.743   3.423  0.00  0.00    +0.038 C 
ENDBRANCH  32  39
ENDBRANCH  31  33
ENDBRANCH  30  31
ENDBRANCH   1  30
TORSDOF 12
ENDMDL
MODEL 9
REMARK VINA RESULT:      -9.4      4.379      9.483
REMARK  Name = 
REMARK  12 active torsions:
REMARK  status: ('A' for Active; 'I' for Inactive)
REMARK    1  A    between atoms: C_2  and  C_5
REMARK    2  A    between atoms: C_10  and  C_11
REMARK    3  A    between atoms: C_11  and  C_12
REMARK    4  A    between atoms: C_12  and  C_13
REMARK    5  A    between atoms: C_13  and  S_14
REMARK    6  A    between atoms: C_13  and  C_23
REMARK    7  A    between atoms: S_14  and  C_15
REMARK    8  A    between atoms: C_15  and  C_16
REMARK    9  A    between atoms: C_16  and  C_17
REMARK   10  A    between atoms: C_17  and  C_18
REMARK   11  A    between atoms: C_27  and  C_28
REMARK   12  A    between atoms: C_29  and  C_30
REMARK                            x       y       z     vdW  Elec       q    Type
REMARK                         _______ _______ _______ _____ _____    ______ ____
ROOT
ATOM      1  C   UNL     1       3.093   6.805  -7.147  0.00  0.00    +0.070 C 
ENDROOT
BRANCH   1   2
ATOM      2  C   UNL     1       3.851   6.587  -5.795  0.00  0.00    -0.012 A 
ATOM      3  C   UNL     1       3.383   7.160  -4.652  0.00  0.00    -0.003 A 
ATOM      4  C   UNL     1       4.091   6.921  -3.479  0.00  0.00    -0.000 A 
ATOM      5  C   UNL     1       4.516   5.609  -3.309  0.00  0.00    -0.000 A 
ATOM      6  C   UNL     1       4.735   4.836  -4.428  0.00  0.00    -0.000 A 
ATOM      7  C   UNL     1       4.434   5.331  -5.676  0.00  0.00    -0.003 A 
BRANCH   4   8
ATOM      8  C   UNL     1       4.110   7.867  -2.373  0.00  0.00    +0.002 C 
ATOM      9  C   UNL     1       4.413   7.560  -1.133  0.00  0.00    +0.019 C 
BRANCH   9  10
ATOM     10  C   UNL     1       3.561   7.891   0.018  0.00  0.00    +0.081 A 
ATOM     11  N   UNL     1       2.322   7.345  -0.001  0.00  0.00    -0.245 NA
ATOM     12  C   UNL     1       1.237   7.997   0.476  0.00  0.00    +0.082 A 
ATOM     13  C   UNL     1       1.331   9.288   0.926  0.00  0.00    +0.018 A 
ATOM     14  C   UNL     1       0.197   9.885   1.448  0.00  0.00    +0.002 A 
ATOM     15  C   UNL     1      -0.926   9.126   1.670  0.00  0.00    +0.011 A 
ATOM     16  C   UNL     1      -0.918   7.751   1.495  0.00  0.00    +0.059 A 
ATOM     17 CL   UNL     1      -2.041   6.696   2.343  0.00  0.00    -0.082 Cl
ATOM     18  C   UNL     1       2.587   9.834   1.103  0.00  0.00    +0.003 A 
ATOM     19  C   UNL     1       0.098   7.242   0.698  0.00  0.00    +0.030 A 
ATOM     20  C   UNL     1       3.684   9.116   0.651  0.00  0.00    +0.019 A 
ENDBRANCH   9  10
ENDBRANCH   4   8
ENDBRANCH   1   2
BRANCH   1  21
ATOM     21  S   UNL     1       1.543   5.796  -6.650  0.00  0.00    -0.137 S 
BRANCH  21  22
ATOM     22  C   UNL     1       0.277   6.942  -6.103  0.00  0.00    +0.058 C 
BRANCH  22  23
ATOM     23  C   UNL     1      -0.799   6.312  -5.271  0.00  0.00    +0.021 C 
ATOM     24  C   UNL     1      -2.210   6.615  -5.847  0.00  0.00    +0.001 C 
ATOM     25  C   UNL     1      -1.674   5.240  -5.769  0.00  0.00    +0.001 C 
BRANCH  23  26
ATOM     26  C   UNL     1      -0.726   6.667  -3.802  0.00  0.00    +0.115 C 
BRANCH  26  27
ATOM     27  C   UNL     1      -0.229   5.458  -3.077  0.00  0.00    +0.365 C 
ATOM     28  O   UNL     1      -1.024   4.952  -2.053  0.00  0.00    -0.246 OA
ATOM     29  O   UNL     1       1.007   5.193  -2.995  0.00  0.00    -0.246 OA
ENDBRANCH  26  27
ENDBRANCH  23  26
ENDBRANCH  22  23
ENDBRANCH  21  22
ENDBRANCH   1  21
BRANCH   1  30
ATOM     30  C   UNL     1       3.796   5.586  -7.903  0.00  0.00    +0.020 C 
BRANCH  30  31
ATOM     31  C   UNL     1       3.767   5.886  -9.382  0.00  0.00    +0.027 C 
BRANCH  31  33
ATOM     32  C   UNL     1       5.415   6.182 -11.153  0.00  0.00    +0.001 A 
ATOM     33  C   UNL     1       5.156   5.661  -9.891  0.00  0.00    -0.024 A 
ATOM     34  C   UNL     1       6.174   5.571  -8.954  0.00  0.00    -0.005 A 
ATOM     35  C   UNL     1       7.447   6.022  -9.281  0.00  0.00    -0.000 A 
ATOM     36  C   UNL     1       7.704   6.581 -10.524  0.00  0.00    -0.000 A 
ATOM     37  C   UNL     1       6.727   6.463 -11.505  0.00  0.00    -0.002 A 
BRANCH  32  39
ATOM     38  C   UNL     1       4.183   4.927 -12.202  0.00  0.00    +0.038 C 
ATOM     39  C   UNL     1       4.438   5.826 -12.230  0.00  0.00    +0.145 C 
ATOM     40  O   UNL     1       3.322   6.669 -12.110  0.00  0.00    -0.221 OA
ATOM     41  C   UNL     1       5.112   6.219 -13.540  0.00  0.00    +0.038 C 
ENDBRANCH  32  39
ENDBRANCH  31  33
ENDBRANCH  30  31
ENDBRANCH   1  30
TORSDOF 12
ENDMDL
