MODEL 1
REMARK VINA RESULT:      -6.5      0.000      0.000
REMARK  Name = 
REMARK  4 active torsions:
REMARK  status: ('A' for Active; 'I' for Inactive)
REMARK    1  A    between atoms: C_2  and  N_3
REMARK    2  A    between atoms: C_2  and  C_8
REMARK    3  A    between atoms: N_3  and  C_4
REMARK    4  A    between atoms: C_8  and  C_10
REMARK                            x       y       z     vdW  Elec       q    Type
REMARK                         _______ _______ _______ _____ _____    ______ ____
ROOT
ATOM      1  C   UNL     1       1.619   6.966  -6.852  0.00  0.00    +0.189 C 
ATOM      2  O   UNL     1       1.649   7.714  -7.822  0.00  0.00    -0.290 OA
ENDROOT
BRANCH   1   3
ATOM      3  C   UNL     1       0.417   6.425  -6.233  0.00  0.00    +0.037 A 
ATOM      4  C   UNL     1      -0.225   7.102  -5.205  0.00  0.00    +0.014 A 
ATOM      5  C   UNL     1      -1.467   6.688  -4.779  0.00  0.00    +0.058 A 
ATOM      6 CL   UNL     1      -2.344   7.499  -3.485  0.00  0.00    -0.082 Cl
ATOM      7  C   UNL     1      -2.271   6.085  -5.738  0.00  0.00    +0.011 A 
ATOM      8  C   UNL     1      -1.678   5.350  -6.727  0.00  0.00    +0.001 A 
ATOM      9  C   UNL     1      -0.360   5.584  -7.019  0.00  0.00    +0.003 A 
ENDBRANCH   1   3
BRANCH   1  11
ATOM     10  C   UNL     1       3.638   6.385  -7.954  0.00  0.00    +0.027 C 
ATOM     11  C   UNL     1       2.926   6.095  -6.499  0.00  0.00    +0.134 C 
BRANCH  11  12
ATOM     12  N   UNL     1       3.653   7.319  -5.822  0.00  0.00    -0.214 NA
BRANCH  12  13
ATOM     13  C   UNL     1       4.104   6.849  -4.537  0.00  0.00    +0.060 C 
ATOM     14  C   UNL     1       4.410   5.375  -4.523  0.00  0.00    +0.017 C 
ATOM     15  C   UNL     1       3.084   7.225  -3.474  0.00  0.00    +0.017 C 
ATOM     16  C   UNL     1       5.416   7.572  -4.258  0.00  0.00    +0.017 C 
ENDBRANCH  12  13
ENDBRANCH  11  12
ENDBRANCH   1  11
TORSDOF 4
ENDMDL
MODEL 2
REMARK VINA RESULT:      -6.2      2.577      4.244
REMARK  Name = 
REMARK  4 active torsions:
REMARK  status: ('A' for Active; 'I' for Inactive)
REMARK    1  A    between atoms: C_2  and  N_3
REMARK    2  A    between atoms: C_2  and  C_8
REMARK    3  A    between atoms: N_3  and  C_4
REMARK    4  A    between atoms: C_8  and  C_10
REMARK                            x       y       z     vdW  Elec       q    Type
REMARK                         _______ _______ _______ _____ _____    ______ ____
ROOT
ATOM      1  C   UNL     1       1.377   5.786  -7.160  0.00  0.00    +0.189 C 
ATOM      2  O   UNL     1       2.475   5.474  -6.713  0.00  0.00    -0.290 OA
ENDROOT
BRANCH   1   3
ATOM      3  C   UNL     1       0.134   5.836  -6.401  0.00  0.00    +0.037 A 
ATOM      4  C   UNL     1      -0.159   6.917  -5.581  0.00  0.00    +0.014 A 
ATOM      5  C   UNL     1      -1.420   7.049  -5.042  0.00  0.00    +0.058 A 
ATOM      6 CL   UNL     1      -1.868   8.394  -3.998  0.00  0.00    -0.082 Cl
ATOM      7  C   UNL     1      -2.463   6.523  -5.794  0.00  0.00    +0.011 A 
ATOM      8  C   UNL     1      -2.229   5.414  -6.560  0.00  0.00    +0.001 A 
ATOM      9  C   UNL     1      -0.940   5.127  -6.924  0.00  0.00    +0.003 A 
ENDBRANCH   1   3
BRANCH   1  11
ATOM     10  C   UNL     1       2.849   7.222  -8.343  0.00  0.00    +0.027 C 
ATOM     11  C   UNL     1       1.305   6.675  -8.499  0.00  0.00    +0.134 C 
BRANCH  11  12
ATOM     12  N   UNL     1       1.752   5.471  -9.413  0.00  0.00    -0.214 NA
BRANCH  12  13
ATOM     13  C   UNL     1       1.000   5.603 -10.635  0.00  0.00    +0.060 C 
ATOM     14  C   UNL     1       1.873   5.707 -11.857  0.00  0.00    +0.017 C 
ATOM     15  C   UNL     1       0.048   6.783 -10.520  0.00  0.00    +0.017 C 
ATOM     16  C   UNL     1       0.195   4.316 -10.780  0.00  0.00    +0.017 C 
ENDBRANCH  12  13
ENDBRANCH  11  12
ENDBRANCH   1  11
TORSDOF 4
ENDMDL
MODEL 3
REMARK VINA RESULT:      -6.2      1.801      3.014
REMARK  Name = 
REMARK  4 active torsions:
REMARK  status: ('A' for Active; 'I' for Inactive)
REMARK    1  A    between atoms: C_2  and  N_3
REMARK    2  A    between atoms: C_2  and  C_8
REMARK    3  A    between atoms: N_3  and  C_4
REMARK    4  A    between atoms: C_8  and  C_10
REMARK                            x       y       z     vdW  Elec       q    Type
REMARK                         _______ _______ _______ _____ _____    ______ ____
ROOT
ATOM      1  C   UNL     1       1.752   5.423  -5.059  0.00  0.00    +0.189 C 
ATOM      2  O   UNL     1       2.369   5.251  -4.014  0.00  0.00    -0.290 OA
ENDROOT
BRANCH   1   3
ATOM      3  C   UNL     1       0.313   5.268  -5.230  0.00  0.00    +0.037 A 
ATOM      4  C   UNL     1      -0.577   5.787  -4.299  0.00  0.00    +0.014 A 
ATOM      5  C   UNL     1      -1.925   5.819  -4.580  0.00  0.00    +0.058 A 
ATOM      6 CL   UNL     1      -3.113   6.465  -3.452  0.00  0.00    -0.082 Cl
ATOM      7  C   UNL     1      -2.266   5.946  -5.921  0.00  0.00    +0.011 A 
ATOM      8  C   UNL     1      -1.449   5.385  -6.864  0.00  0.00    +0.001 A 
ATOM      9  C   UNL     1      -0.145   5.127  -6.534  0.00  0.00    +0.003 A 
ENDBRANCH   1   3
BRANCH   1  11
ATOM     10  C   UNL     1       3.461   7.063  -5.174  0.00  0.00    +0.027 C 
ATOM     11  C   UNL     1       2.402   6.343  -6.208  0.00  0.00    +0.134 C 
BRANCH  11  12
ATOM     12  N   UNL     1       3.446   5.234  -6.612  0.00  0.00    -0.214 NA
BRANCH  12  13
ATOM     13  C   UNL     1       3.444   5.196  -8.052  0.00  0.00    +0.060 C 
ATOM     14  C   UNL     1       2.788   6.401  -8.673  0.00  0.00    +0.017 C 
ATOM     15  C   UNL     1       2.806   3.900  -8.525  0.00  0.00    +0.017 C 
ATOM     16  C   UNL     1       4.907   5.225  -8.480  0.00  0.00    +0.017 C 
ENDBRANCH  12  13
ENDBRANCH  11  12
ENDBRANCH   1  11
TORSDOF 4
ENDMDL
MODEL 4
REMARK VINA RESULT:      -6.0      3.945      6.072
REMARK  Name = 
REMARK  4 active torsions:
REMARK  status: ('A' for Active; 'I' for Inactive)
REMARK    1  A    between atoms: C_2  and  N_3
REMARK    2  A    between atoms: C_2  and  C_8
REMARK    3  A    between atoms: N_3  and  C_4
REMARK    4  A    between atoms: C_8  and  C_10
REMARK                            x       y       z     vdW  Elec       q    Type
REMARK                         _______ _______ _______ _____ _____    ______ ____
ROOT
ATOM      1  C   UNL     1       3.347   5.802  -8.439  0.00  0.00    +0.189 C 
ATOM      2  O   UNL     1       2.257   5.394  -8.822  0.00  0.00    -0.290 OA
ENDROOT
BRANCH   1   3
ATOM      3  C   UNL     1       4.578   5.794  -9.218  0.00  0.00    +0.037 A 
ATOM      4  C   UNL     1       4.824   6.770 -10.175  0.00  0.00    +0.014 A 
ATOM      5  C   UNL     1       6.073   6.871 -10.748  0.00  0.00    +0.058 A 
ATOM      6 CL   UNL     1       6.461   8.084 -11.963  0.00  0.00    -0.082 Cl
ATOM      7  C   UNL     1       7.142   6.481  -9.952  0.00  0.00    +0.011 A 
ATOM      8  C   UNL     1       6.956   5.473  -9.046  0.00  0.00    +0.001 A 
ATOM      9  C   UNL     1       5.682   5.194  -8.627  0.00  0.00    +0.003 A 
ENDBRANCH   1   3
BRANCH   1  11
ATOM     10  C   UNL     1       1.959   7.549  -7.632  0.00  0.00    +0.027 C 
ATOM     11  C   UNL     1       3.401   6.865  -7.232  0.00  0.00    +0.134 C 
BRANCH  11  12
ATOM     12  N   UNL     1       2.724   5.865  -6.220  0.00  0.00    -0.214 NA
BRANCH  12  13
ATOM     13  C   UNL     1       3.428   6.027  -4.973  0.00  0.00    +0.060 C 
ATOM     14  C   UNL     1       4.557   7.019  -5.059  0.00  0.00    +0.017 C 
ATOM     15  C   UNL     1       3.904   4.670  -4.480  0.00  0.00    +0.017 C 
ATOM     16  C   UNL     1       2.418   6.598  -3.985  0.00  0.00    +0.017 C 
ENDBRANCH  12  13
ENDBRANCH  11  12
ENDBRANCH   1  11
TORSDOF 4
ENDMDL
MODEL 5
REMARK VINA RESULT:      -6.0      3.555      6.099
REMARK  Name = 
REMARK  4 active torsions:
REMARK  status: ('A' for Active; 'I' for Inactive)
REMARK    1  A    between atoms: C_2  and  N_3
REMARK    2  A    between atoms: C_2  and  C_8
REMARK    3  A    between atoms: N_3  and  C_4
REMARK    4  A    between atoms: C_8  and  C_10
REMARK                            x       y       z     vdW  Elec       q    Type
REMARK                         _______ _______ _______ _____ _____    ______ ____
ROOT
ATOM      1  C   UNL     1       2.799   6.916  -8.084  0.00  0.00    +0.189 C 
ATOM      2  O   UNL     1       2.369   8.062  -8.118  0.00  0.00    -0.290 OA
ENDROOT
BRANCH   1   3
ATOM      3  C   UNL     1       3.863   6.382  -8.926  0.00  0.00    +0.037 A 
ATOM      4  C   UNL     1       4.393   7.131  -9.968  0.00  0.00    +0.014 A 
ATOM      5  C   UNL     1       5.531   6.702 -10.613  0.00  0.00    +0.058 A 
ATOM      6 CL   UNL     1       6.264   7.599 -11.939  0.00  0.00    -0.082 Cl
ATOM      7  C   UNL     1       6.423   5.961  -9.848  0.00  0.00    +0.011 A 
ATOM      8  C   UNL     1       5.931   5.156  -8.858  0.00  0.00    +0.001 A 
ATOM      9  C   UNL     1       4.688   5.425  -8.350  0.00  0.00    +0.003 A 
ENDBRANCH   1   3
BRANCH   1  11
ATOM     10  C   UNL     1       3.318   7.160  -5.782  0.00  0.00    +0.027 C 
ATOM     11  C   UNL     1       2.590   6.043  -6.748  0.00  0.00    +0.134 C 
BRANCH  11  12
ATOM     12  N   UNL     1       1.159   6.648  -6.485  0.00  0.00    -0.214 NA
BRANCH  12  13
ATOM     13  C   UNL     1       0.294   5.523  -6.239  0.00  0.00    +0.060 C 
ATOM     14  C   UNL     1       1.046   4.240  -6.005  0.00  0.00    +0.017 C 
ATOM     15  C   UNL     1      -0.705   5.392  -7.378  0.00  0.00    +0.017 C 
ATOM     16  C   UNL     1      -0.452   5.835  -4.947  0.00  0.00    +0.017 C 
ENDBRANCH  12  13
ENDBRANCH  11  12
ENDBRANCH   1  11
TORSDOF 4
ENDMDL
MODEL 6
REMARK VINA RESULT:      -6.0      5.599      8.097
REMARK  Name = 
REMARK  4 active torsions:
REMARK  status: ('A' for Active; 'I' for Inactive)
REMARK    1  A    between atoms: C_2  and  N_3
REMARK    2  A    between atoms: C_2  and  C_8
REMARK    3  A    between atoms: N_3  and  C_4
REMARK    4  A    between atoms: C_8  and  C_10
REMARK                            x       y       z     vdW  Elec       q    Type
REMARK                         _______ _______ _______ _____ _____    ______ ____
ROOT
ATOM      1  C   UNL     1       3.760   6.135  -9.843  0.00  0.00    +0.189 C 
ATOM      2  O   UNL     1       3.504   7.011  -9.025  0.00  0.00    -0.290 OA
ENDROOT
BRANCH   1   3
ATOM      3  C   UNL     1       5.094   5.657 -10.185  0.00  0.00    +0.037 A 
ATOM      4  C   UNL     1       5.555   5.702 -11.493  0.00  0.00    +0.014 A 
ATOM      5  C   UNL     1       6.881   5.447 -11.764  0.00  0.00    +0.058 A 
ATOM      6 CL   UNL     1       7.540   5.490 -13.396  0.00  0.00    -0.082 Cl
ATOM      7  C   UNL     1       7.784   5.783 -10.763  0.00  0.00    +0.011 A 
ATOM      8  C   UNL     1       7.386   5.683  -9.458  0.00  0.00    +0.001 A 
ATOM      9  C   UNL     1       6.046   5.702  -9.175  0.00  0.00    +0.003 A 
ENDBRANCH   1   3
BRANCH   1  11
ATOM     10  C   UNL     1       2.448   4.537  -8.680  0.00  0.00    +0.027 C 
ATOM     11  C   UNL     1       2.618   5.069 -10.228  0.00  0.00    +0.134 C 
BRANCH  11  12
ATOM     12  N   UNL     1       1.464   6.130 -10.062  0.00  0.00    -0.214 NA
BRANCH  12  13
ATOM     13  C   UNL     1       0.724   6.105 -11.298  0.00  0.00    +0.060 C 
ATOM     14  C   UNL     1       1.608   6.074 -12.515  0.00  0.00    +0.017 C 
ATOM     15  C   UNL     1      -0.244   7.276 -11.333  0.00  0.00    +0.017 C 
ATOM     16  C   UNL     1      -0.063   4.799 -11.295  0.00  0.00    +0.017 C 
ENDBRANCH  12  13
ENDBRANCH  11  12
ENDBRANCH   1  11
TORSDOF 4
ENDMDL
MODEL 7
REMARK VINA RESULT:      -5.9      4.117      6.378
REMARK  Name = 
REMARK  4 active torsions:
REMARK  status: ('A' for Active; 'I' for Inactive)
REMARK    1  A    between atoms: C_2  and  N_3
REMARK    2  A    between atoms: C_2  and  C_8
REMARK    3  A    between atoms: N_3  and  C_4
REMARK    4  A    between atoms: C_8  and  C_10
REMARK                            x       y       z     vdW  Elec       q    Type
REMARK                         _______ _______ _______ _____ _____    ______ ____
ROOT
ATOM      1  C   UNL     1       2.188   5.493 -10.456  0.00  0.00    +0.189 C 
ATOM      2  O   UNL     1       1.562   5.088 -11.428  0.00  0.00    -0.290 OA
ENDROOT
BRANCH   1   3
ATOM      3  C   UNL     1       3.638   5.473 -10.311  0.00  0.00    +0.037 A 
ATOM      4  C   UNL     1       4.420   6.503 -10.817  0.00  0.00    +0.014 A 
ATOM      5  C   UNL     1       5.756   6.576 -10.490  0.00  0.00    +0.058 A 
ATOM      6 CL   UNL     1       6.809   7.853 -11.088  0.00  0.00    -0.082 Cl
ATOM      7  C   UNL     1       6.108   6.065  -9.247  0.00  0.00    +0.011 A 
ATOM      8  C   UNL     1       5.404   5.004  -8.747  0.00  0.00    +0.001 A 
ATOM      9  C   UNL     1       4.143   4.767  -9.227  0.00  0.00    +0.003 A 
ENDBRANCH   1   3
BRANCH   1  11
ATOM     10  C   UNL     1       0.278   6.898 -10.527  0.00  0.00    +0.027 C 
ATOM     11  C   UNL     1       1.496   6.562  -9.472  0.00  0.00    +0.134 C 
BRANCH  11  12
ATOM     12  N   UNL     1       0.648   5.454  -8.740  0.00  0.00    -0.214 NA
BRANCH  12  13
ATOM     13  C   UNL     1       0.807   5.703  -7.329  0.00  0.00    +0.060 C 
ATOM     14  C   UNL     1      -0.503   5.770  -6.591  0.00  0.00    +0.017 C 
ATOM     15  C   UNL     1       1.634   6.963  -7.127  0.00  0.00    +0.017 C 
ATOM     16  C   UNL     1       1.565   4.505  -6.769  0.00  0.00    +0.017 C 
ENDBRANCH  12  13
ENDBRANCH  11  12
ENDBRANCH   1  11
TORSDOF 4
ENDMDL
MODEL 8
REMARK VINA RESULT:      -5.9      3.326      5.383
REMARK  Name = 
REMARK  4 active torsions:
REMARK  status: ('A' for Active; 'I' for Inactive)
REMARK    1  A    between atoms: C_2  and  N_3
REMARK    2  A    between atoms: C_2  and  C_8
REMARK    3  A    between atoms: N_3  and  C_4
REMARK    4  A    between atoms: C_8  and  C_10
REMARK                            x       y       z     vdW  Elec       q    Type
REMARK                         _______ _______ _______ _____ _____    ______ ____
ROOT
ATOM      1  C   UNL     1       2.161   7.106  -8.018  0.00  0.00    +0.189 C 
ATOM      2  O   UNL     1       2.169   8.315  -7.821  0.00  0.00    -0.290 OA
ENDROOT
BRANCH   1   3
ATOM      3  C   UNL     1       2.505   6.448  -9.272  0.00  0.00    +0.037 A 
ATOM      4  C   UNL     1       1.522   6.091 -10.184  0.00  0.00    +0.014 A 
ATOM      5  C   UNL     1       1.876   5.667 -11.446  0.00  0.00    +0.058 A 
ATOM      6 CL   UNL     1       0.686   5.203 -12.658  0.00  0.00    -0.082 Cl
ATOM      7  C   UNL     1       3.053   6.196 -11.959  0.00  0.00    +0.011 A 
ATOM      8  C   UNL     1       4.072   6.494 -11.096  0.00  0.00    +0.001 A 
ATOM      9  C   UNL     1       3.776   6.697  -9.774  0.00  0.00    +0.003 A 
ENDBRANCH   1   3
BRANCH   1  11
ATOM     10  C   UNL     1       3.241   7.136  -5.906  0.00  0.00    +0.027 C 
ATOM     11  C   UNL     1       2.280   6.110  -6.759  0.00  0.00    +0.134 C 
BRANCH  11  12
ATOM     12  N   UNL     1       0.968   6.674  -6.092  0.00  0.00    -0.214 NA
BRANCH  12  13
ATOM     13  C   UNL     1       0.104   5.538  -5.896  0.00  0.00    +0.060 C 
ATOM     14  C   UNL     1      -0.926   5.387  -6.982  0.00  0.00    +0.017 C 
ATOM     15  C   UNL     1      -0.534   5.619  -4.519  0.00  0.00    +0.017 C 
ATOM     16  C   UNL     1       1.000   4.306  -5.967  0.00  0.00    +0.017 C 
ENDBRANCH  12  13
ENDBRANCH  11  12
ENDBRANCH   1  11
TORSDOF 4
ENDMDL
MODEL 9
REMARK VINA RESULT:      -5.8      4.332      6.786
REMARK  Name = 
REMARK  4 active torsions:
REMARK  status: ('A' for Active; 'I' for Inactive)
REMARK    1  A    between atoms: C_2  and  N_3
REMARK    2  A    between atoms: C_2  and  C_8
REMARK    3  A    between atoms: N_3  and  C_4
REMARK    4  A    between atoms: C_8  and  C_10
REMARK                            x       y       z     vdW  Elec       q    Type
REMARK                         _______ _______ _______ _____ _____    ______ ____
ROOT
ATOM      1  C   UNL     1       3.923   4.832  -9.121  0.00  0.00    +0.189 C 
ATOM      2  O   UNL     1       3.561   3.683  -8.900  0.00  0.00    -0.290 OA
ENDROOT
BRANCH   1   3
ATOM      3  C   UNL     1       5.158   5.219  -9.791  0.00  0.00    +0.037 A 
ATOM      4  C   UNL     1       5.132   5.881 -11.011  0.00  0.00    +0.014 A 
ATOM      5  C   UNL     1       6.289   6.424 -11.524  0.00  0.00    +0.058 A 
ATOM      6 CL   UNL     1       6.334   7.280 -13.061  0.00  0.00    -0.082 Cl
ATOM      7  C   UNL     1       7.228   6.850 -10.592  0.00  0.00    +0.011 A 
ATOM      8  C   UNL     1       7.331   6.178  -9.406  0.00  0.00    +0.001 A 
ATOM      9  C   UNL     1       6.264   5.433  -8.977  0.00  0.00    +0.003 A 
ENDBRANCH   1   3
BRANCH   1  11
ATOM     10  C   UNL     1       1.746   5.105 -10.023  0.00  0.00    +0.027 C 
ATOM     11  C   UNL     1       2.821   6.004  -9.160  0.00  0.00    +0.134 C 
BRANCH  11  12
ATOM     12  N   UNL     1       2.191   5.561  -7.785  0.00  0.00    -0.214 NA
BRANCH  12  13
ATOM     13  C   UNL     1       2.193   6.738  -6.953  0.00  0.00    +0.060 C 
ATOM     14  C   UNL     1       3.415   6.842  -6.081  0.00  0.00    +0.017 C 
ATOM     15  C   UNL     1       0.911   6.783  -6.136  0.00  0.00    +0.017 C 
ATOM     16  C   UNL     1       2.229   7.929  -7.903  0.00  0.00    +0.017 C 
ENDBRANCH  12  13
ENDBRANCH  11  12
ENDBRANCH   1  11
TORSDOF 4
ENDMDL
