MODEL 1
REMARK VINA RESULT:      -9.7      0.000      0.000
REMARK  Name = 
REMARK  3 active torsions:
REMARK  status: ('A' for Active; 'I' for Inactive)
REMARK    1  A    between atoms: C_10  and  C_11
REMARK    2  A    between atoms: N_13  and  C_14
REMARK    3  A    between atoms: C_14  and  C_15
REMARK                            x       y       z     vdW  Elec       q    Type
REMARK                         _______ _______ _______ _____ _____    ______ ____
ROOT
ATOM      1  C   UNL     1       5.434   6.500 -14.239  0.00  0.00    +0.022 C 
ATOM      2  C   UNL     1       6.428   6.874 -12.956  0.00  0.00    +0.080 C 
ATOM      3  N   UNL     1       6.085   5.490 -12.241  0.00  0.00    -0.253 N 
ATOM      4  C   UNL     1       6.983   5.398 -10.894  0.00  0.00    +0.218 C 
ATOM      5  C   UNL     1       6.139   6.683 -10.168  0.00  0.00    +0.157 C 
ATOM      6  N   UNL     1       4.947   5.968  -9.708  0.00  0.00    -0.315 N 
ATOM      7  C   UNL     1       4.127   5.360 -10.608  0.00  0.00    +0.157 A 
ATOM      8  C   UNL     1       2.742   5.438 -10.466  0.00  0.00    +0.254 A 
ATOM      9  O   UNL     1       1.876   5.355 -11.560  0.00  0.00    -0.281 OA
ATOM     10  C   UNL     1       2.233   6.123  -9.373  0.00  0.00    +0.242 A 
ATOM     11  O   UNL     1       1.142   6.732  -9.365  0.00  0.00    -0.283 OA
ATOM     12  C   UNL     1       3.058   6.194  -8.256  0.00  0.00    +0.114 A 
ATOM     13  C   UNL     1       4.414   6.128  -8.471  0.00  0.00    +0.084 A 
ATOM     14  O   UNL     1       8.093   6.354 -11.443  0.00  0.00    -0.336 OA
ATOM     15  C   UNL     1       8.539   5.626 -12.561  0.00  0.00    +0.146 C 
ATOM     16  C   UNL     1       4.693   5.336 -11.966  0.00  0.00    +0.270 C 
ATOM     17  O   UNL     1       3.964   5.443 -13.000  0.00  0.00    -0.268 OA
ATOM     18  C   UNL     1       7.744   6.196 -13.733  0.00  0.00    +0.052 C 
ENDROOT
BRANCH  12  19
ATOM     19  C   UNL     1       2.441   6.213  -6.930  0.00  0.00    +0.270 C 
ATOM     20  N   UNL     1       1.774   5.029  -6.468  0.00  0.00    -0.197 NA
ATOM     21  O   UNL     1       2.908   6.907  -5.976  0.00  0.00    -0.268 OA
BRANCH  20  22
ATOM     22  C   UNL     1       0.894   4.998  -5.337  0.00  0.00    +0.144 C 
BRANCH  22  23
ATOM     23  C   UNL     1      -0.138   6.055  -5.581  0.00  0.00    +0.027 A 
ATOM     24  C   UNL     1      -1.249   5.627  -6.299  0.00  0.00    +0.140 A 
ATOM     25  F   UNL     1      -1.274   4.400  -6.897  0.00  0.00    -0.204 F 
ATOM     26  C   UNL     1      -2.444   6.315  -6.248  0.00  0.00    +0.059 A 
ATOM     27  C   UNL     1      -2.562   7.412  -5.407  0.00  0.00    +0.142 A 
ATOM     28  F   UNL     1      -3.705   8.142  -5.516  0.00  0.00    -0.204 F 
ATOM     29  C   UNL     1      -1.483   7.794  -4.646  0.00  0.00    +0.030 A 
ATOM     30  C   UNL     1      -0.423   6.914  -4.526  0.00  0.00    +0.002 A 
ENDBRANCH  22  23
ENDBRANCH  20  22
ENDBRANCH  12  19
TORSDOF 3
ENDMDL
MODEL 2
REMARK VINA RESULT:      -9.7      3.871      8.763
REMARK  Name = 
REMARK  3 active torsions:
REMARK  status: ('A' for Active; 'I' for Inactive)
REMARK    1  A    between atoms: C_10  and  C_11
REMARK    2  A    between atoms: N_13  and  C_14
REMARK    3  A    between atoms: C_14  and  C_15
REMARK                            x       y       z     vdW  Elec       q    Type
REMARK                         _______ _______ _______ _____ _____    ______ ____
ROOT
ATOM      1  C   UNL     1       1.822   4.959  -1.321  0.00  0.00    +0.022 C 
ATOM      2  C   UNL     1       3.275   5.514  -1.917  0.00  0.00    +0.080 C 
ATOM      3  N   UNL     1       2.571   6.814  -2.517  0.00  0.00    -0.253 N 
ATOM      4  C   UNL     1       3.732   7.748  -3.157  0.00  0.00    +0.218 C 
ATOM      5  C   UNL     1       4.057   6.615  -4.381  0.00  0.00    +0.157 C 
ATOM      6  N   UNL     1       2.964   6.927  -5.305  0.00  0.00    -0.315 N 
ATOM      7  C   UNL     1       1.671   6.781  -4.905  0.00  0.00    +0.157 A 
ATOM      8  C   UNL     1       0.724   6.231  -5.769  0.00  0.00    +0.254 A 
ATOM      9  O   UNL     1      -0.405   5.553  -5.300  0.00  0.00    -0.281 OA
ATOM     10  C   UNL     1       1.131   5.870  -7.044  0.00  0.00    +0.242 A 
ATOM     11  O   UNL     1       0.631   4.938  -7.709  0.00  0.00    -0.283 OA
ATOM     12  C   UNL     1       2.231   6.553  -7.552  0.00  0.00    +0.114 A 
ATOM     13  C   UNL     1       3.134   7.053  -6.644  0.00  0.00    +0.084 A 
ATOM     14  O   UNL     1       4.854   7.168  -2.234  0.00  0.00    -0.336 OA
ATOM     15  C   UNL     1       4.367   7.531  -0.966  0.00  0.00    +0.146 C 
ATOM     16  C   UNL     1       1.549   6.508  -3.464  0.00  0.00    +0.270 C 
ATOM     17  O   UNL     1       0.648   5.745  -2.999  0.00  0.00    -0.268 OA
ATOM     18  C   UNL     1       3.605   6.301  -0.480  0.00  0.00    +0.052 C 
ENDROOT
BRANCH  12  19
ATOM     19  C   UNL     1       2.299   6.798  -8.992  0.00  0.00    +0.270 C 
ATOM     20  N   UNL     1       3.127   5.943  -9.794  0.00  0.00    -0.197 NA
ATOM     21  O   UNL     1       1.319   7.271  -9.645  0.00  0.00    -0.268 OA
BRANCH  20  22
ATOM     22  C   UNL     1       3.510   6.239 -11.143  0.00  0.00    +0.144 C 
BRANCH  22  23
ATOM     23  C   UNL     1       5.001   6.112 -11.193  0.00  0.00    +0.027 A 
ATOM     24  C   UNL     1       5.484   5.351 -12.252  0.00  0.00    +0.140 A 
ATOM     25  F   UNL     1       4.640   4.621 -13.039  0.00  0.00    -0.204 F 
ATOM     26  C   UNL     1       6.786   5.478 -12.690  0.00  0.00    +0.059 A 
ATOM     27  C   UNL     1       7.608   6.434 -12.112  0.00  0.00    +0.142 A 
ATOM     28  F   UNL     1       8.919   6.406 -12.472  0.00  0.00    -0.204 F 
ATOM     29  C   UNL     1       7.108   7.233 -11.112  0.00  0.00    +0.030 A 
ATOM     30  C   UNL     1       5.740   7.256 -10.914  0.00  0.00    +0.002 A 
ENDBRANCH  22  23
ENDBRANCH  20  22
ENDBRANCH  12  19
TORSDOF 3
ENDMDL
MODEL 3
REMARK VINA RESULT:      -9.6      3.437      9.384
REMARK  Name = 
REMARK  3 active torsions:
REMARK  status: ('A' for Active; 'I' for Inactive)
REMARK    1  A    between atoms: C_10  and  C_11
REMARK    2  A    between atoms: N_13  and  C_14
REMARK    3  A    between atoms: C_14  and  C_15
REMARK                            x       y       z     vdW  Elec       q    Type
REMARK                         _______ _______ _______ _____ _____    ______ ____
ROOT
ATOM      1  C   UNL     1      -0.082   6.496  -1.699  0.00  0.00    +0.022 C 
ATOM      2  C   UNL     1      -1.021   6.901  -3.014  0.00  0.00    +0.080 C 
ATOM      3  N   UNL     1      -0.860   5.436  -3.624  0.00  0.00    -0.253 N 
ATOM      4  C   UNL     1      -1.764   5.362  -4.968  0.00  0.00    +0.218 C 
ATOM      5  C   UNL     1      -0.763   6.472  -5.779  0.00  0.00    +0.157 C 
ATOM      6  N   UNL     1       0.327   5.577  -6.176  0.00  0.00    -0.315 N 
ATOM      7  C   UNL     1       1.063   4.936  -5.228  0.00  0.00    +0.157 A 
ATOM      8  C   UNL     1       2.446   4.825  -5.364  0.00  0.00    +0.254 A 
ATOM      9  O   UNL     1       3.296   4.711  -4.259  0.00  0.00    -0.281 OA
ATOM     10  C   UNL     1       3.038   5.358  -6.499  0.00  0.00    +0.242 A 
ATOM     11  O   UNL     1       4.198   5.819  -6.542  0.00  0.00    -0.283 OA
ATOM     12  C   UNL     1       2.227   5.451  -7.625  0.00  0.00    +0.114 A 
ATOM     13  C   UNL     1       0.875   5.577  -7.416  0.00  0.00    +0.084 A 
ATOM     14  O   UNL     1      -2.741   6.490  -4.499  0.00  0.00    -0.336 OA
ATOM     15  C   UNL     1      -3.275   5.909  -3.335  0.00  0.00    +0.146 C 
ATOM     16  C   UNL     1       0.501   5.084  -3.876  0.00  0.00    +0.270 C 
ATOM     17  O   UNL     1       1.239   5.172  -2.847  0.00  0.00    -0.268 OA
ATOM     18  C   UNL     1      -2.413   6.456  -2.201  0.00  0.00    +0.052 C 
ENDROOT
BRANCH  12  19
ATOM     19  C   UNL     1       2.840   5.294  -8.944  0.00  0.00    +0.270 C 
ATOM     20  N   UNL     1       3.300   6.468  -9.630  0.00  0.00    -0.197 NA
ATOM     21  O   UNL     1       3.500   4.258  -9.264  0.00  0.00    -0.268 OA
BRANCH  20  22
ATOM     22  C   UNL     1       3.647   6.496 -11.020  0.00  0.00    +0.144 C 
BRANCH  22  23
ATOM     23  C   UNL     1       5.130   6.303 -11.085  0.00  0.00    +0.027 A 
ATOM     24  C   UNL     1       5.560   5.427 -12.076  0.00  0.00    +0.140 A 
ATOM     25  F   UNL     1       4.671   4.664 -12.777  0.00  0.00    -0.204 F 
ATOM     26  C   UNL     1       6.856   5.458 -12.547  0.00  0.00    +0.059 A 
ATOM     27  C   UNL     1       7.728   6.429 -12.076  0.00  0.00    +0.142 A 
ATOM     28  F   UNL     1       9.029   6.312 -12.455  0.00  0.00    -0.204 F 
ATOM     29  C   UNL     1       7.282   7.337 -11.146  0.00  0.00    +0.030 A 
ATOM     30  C   UNL     1       5.921   7.435 -10.927  0.00  0.00    +0.002 A 
ENDBRANCH  22  23
ENDBRANCH  20  22
ENDBRANCH  12  19
TORSDOF 3
ENDMDL
MODEL 4
REMARK VINA RESULT:      -9.2      4.543      6.902
REMARK  Name = 
REMARK  3 active torsions:
REMARK  status: ('A' for Active; 'I' for Inactive)
REMARK    1  A    between atoms: C_10  and  C_11
REMARK    2  A    between atoms: N_13  and  C_14
REMARK    3  A    between atoms: C_14  and  C_15
REMARK                            x       y       z     vdW  Elec       q    Type
REMARK                         _______ _______ _______ _____ _____    ______ ____
ROOT
ATOM      1  C   UNL     1       1.680   6.754  -9.251  0.00  0.00    +0.022 C 
ATOM      2  C   UNL     1       2.668   6.861  -7.915  0.00  0.00    +0.080 C 
ATOM      3  N   UNL     1       2.178   5.434  -7.395  0.00  0.00    -0.253 N 
ATOM      4  C   UNL     1       3.026   5.082  -6.058  0.00  0.00    +0.218 C 
ATOM      5  C   UNL     1       2.283   6.335  -5.181  0.00  0.00    +0.157 C 
ATOM      6  N   UNL     1       1.017   5.682  -4.840  0.00  0.00    -0.315 N 
ATOM      7  C   UNL     1       0.171   5.278  -5.825  0.00  0.00    +0.157 A 
ATOM      8  C   UNL     1      -1.204   5.468  -5.697  0.00  0.00    +0.254 A 
ATOM      9  O   UNL     1      -2.043   5.611  -6.806  0.00  0.00    -0.281 OA
ATOM     10  C   UNL     1      -1.679   6.050  -4.531  0.00  0.00    +0.242 A 
ATOM     11  O   UNL     1      -2.709   6.753  -4.460  0.00  0.00    -0.283 OA
ATOM     12  C   UNL     1      -0.883   5.894  -3.401  0.00  0.00    +0.114 A 
ATOM     13  C   UNL     1       0.466   5.729  -3.602  0.00  0.00    +0.084 A 
ATOM     14  O   UNL     1       4.234   5.992  -6.457  0.00  0.00    -0.336 OA
ATOM     15  C   UNL     1       4.643   5.378  -7.655  0.00  0.00    +0.146 C 
ATOM     16  C   UNL     1       0.771   5.378  -7.166  0.00  0.00    +0.270 C 
ATOM     17  O   UNL     1       0.084   5.689  -8.187  0.00  0.00    -0.268 OA
ATOM     18  C   UNL     1       3.938   6.169  -8.753  0.00  0.00    +0.052 C 
ENDROOT
BRANCH  12  19
ATOM     19  C   UNL     1      -1.534   5.798  -2.095  0.00  0.00    +0.270 C 
ATOM     20  N   UNL     1      -1.642   6.985  -1.295  0.00  0.00    -0.197 NA
ATOM     21  O   UNL     1      -2.470   4.973  -1.864  0.00  0.00    -0.268 OA
BRANCH  20  22
ATOM     22  C   UNL     1      -1.986   6.981   0.097  0.00  0.00    +0.144 C 
BRANCH  22  23
ATOM     23  C   UNL     1      -1.563   8.312   0.637  0.00  0.00    +0.027 A 
ATOM     24  C   UNL     1      -2.358   8.800   1.668  0.00  0.00    +0.140 A 
ATOM     25  F   UNL     1      -3.537   8.195   1.997  0.00  0.00    -0.204 F 
ATOM     26  C   UNL     1      -1.890   9.760   2.540  0.00  0.00    +0.059 A 
ATOM     27  C   UNL     1      -0.577  10.195   2.434  0.00  0.00    +0.142 A 
ATOM     28  F   UNL     1      -0.221  11.251   3.214  0.00  0.00    -0.204 F 
ATOM     29  C   UNL     1       0.229   9.662   1.456  0.00  0.00    +0.030 A 
ATOM     30  C   UNL     1      -0.199   8.518   0.806  0.00  0.00    +0.002 A 
ENDBRANCH  22  23
ENDBRANCH  20  22
ENDBRANCH  12  19
TORSDOF 3
ENDMDL
MODEL 5
REMARK VINA RESULT:      -9.0      2.399      3.308
REMARK  Name = 
REMARK  3 active torsions:
REMARK  status: ('A' for Active; 'I' for Inactive)
REMARK    1  A    between atoms: C_10  and  C_11
REMARK    2  A    between atoms: N_13  and  C_14
REMARK    3  A    between atoms: C_14  and  C_15
REMARK                            x       y       z     vdW  Elec       q    Type
REMARK                         _______ _______ _______ _____ _____    ______ ____
ROOT
ATOM      1  C   UNL     1       5.075   6.459 -14.870  0.00  0.00    +0.022 C 
ATOM      2  C   UNL     1       6.053   6.956 -13.617  0.00  0.00    +0.080 C 
ATOM      3  N   UNL     1       5.707   5.643 -12.780  0.00  0.00    -0.253 N 
ATOM      4  C   UNL     1       6.590   5.682 -11.420  0.00  0.00    +0.218 C 
ATOM      5  C   UNL     1       5.732   7.024 -10.826  0.00  0.00    +0.157 C 
ATOM      6  N   UNL     1       4.537   6.348 -10.315  0.00  0.00    -0.315 N 
ATOM      7  C   UNL     1       3.730   5.654 -11.164  0.00  0.00    +0.157 A 
ATOM      8  C   UNL     1       2.344   5.738 -11.046  0.00  0.00    +0.254 A 
ATOM      9  O   UNL     1       1.491   5.549 -12.137  0.00  0.00    -0.281 OA
ATOM     10  C   UNL     1       1.819   6.519 -10.027  0.00  0.00    +0.242 A 
ATOM     11  O   UNL     1       0.725   7.120 -10.088  0.00  0.00    -0.283 OA
ATOM     12  C   UNL     1       2.630   6.697  -8.912  0.00  0.00    +0.114 A 
ATOM     13  C   UNL     1       3.989   6.619  -9.105  0.00  0.00    +0.084 A 
ATOM     14  O   UNL     1       7.702   6.588 -12.043  0.00  0.00    -0.336 OA
ATOM     15  C   UNL     1       8.164   5.762 -13.083  0.00  0.00    +0.146 C 
ATOM     16  C   UNL     1       4.312   5.507 -12.507  0.00  0.00    +0.270 C 
ATOM     17  O   UNL     1       3.595   5.514 -13.555  0.00  0.00    -0.268 OA
ATOM     18  C   UNL     1       7.381   6.216 -14.312  0.00  0.00    +0.052 C 
ENDROOT
BRANCH  12  19
ATOM     19  C   UNL     1       1.997   6.836  -7.601  0.00  0.00    +0.270 C 
ATOM     20  N   UNL     1       2.153   5.773  -6.649  0.00  0.00    -0.197 NA
ATOM     21  O   UNL     1       1.838   7.965  -7.042  0.00  0.00    -0.268 OA
BRANCH  20  22
ATOM     22  C   UNL     1       1.365   5.646  -5.459  0.00  0.00    +0.144 C 
BRANCH  22  23
ATOM     23  C   UNL     1       2.322   5.739  -4.311  0.00  0.00    +0.027 A 
ATOM     24  C   UNL     1       1.734   5.638  -3.055  0.00  0.00    +0.140 A 
ATOM     25  F   UNL     1       0.377   5.662  -2.906  0.00  0.00    -0.204 F 
ATOM     26  C   UNL     1       2.472   5.282  -1.945  0.00  0.00    +0.059 A 
ATOM     27  C   UNL     1       3.811   4.948  -2.096  0.00  0.00    +0.142 A 
ATOM     28  F   UNL     1       4.523   4.761  -0.953  0.00  0.00    -0.204 F 
ATOM     29  C   UNL     1       4.373   4.983  -3.349  0.00  0.00    +0.030 A 
ATOM     30  C   UNL     1       3.532   5.066  -4.443  0.00  0.00    +0.002 A 
ENDBRANCH  22  23
ENDBRANCH  20  22
ENDBRANCH  12  19
TORSDOF 3
ENDMDL
MODEL 6
REMARK VINA RESULT:      -9.0      3.518      9.327
REMARK  Name = 
REMARK  3 active torsions:
REMARK  status: ('A' for Active; 'I' for Inactive)
REMARK    1  A    between atoms: C_10  and  C_11
REMARK    2  A    between atoms: N_13  and  C_14
REMARK    3  A    between atoms: C_14  and  C_15
REMARK                            x       y       z     vdW  Elec       q    Type
REMARK                         _______ _______ _______ _____ _____    ______ ____
ROOT
ATOM      1  C   UNL     1       0.725   6.302  -0.315  0.00  0.00    +0.022 C 
ATOM      2  C   UNL     1      -0.500   6.846  -1.303  0.00  0.00    +0.080 C 
ATOM      3  N   UNL     1      -0.415   5.525  -2.195  0.00  0.00    -0.253 N 
ATOM      4  C   UNL     1      -1.591   5.608  -3.308  0.00  0.00    +0.218 C 
ATOM      5  C   UNL     1      -0.844   6.919  -4.091  0.00  0.00    +0.157 C 
ATOM      6  N   UNL     1       0.168   6.200  -4.868  0.00  0.00    -0.315 N 
ATOM      7  C   UNL     1       1.123   5.469  -4.231  0.00  0.00    +0.157 A 
ATOM      8  C   UNL     1       2.445   5.498  -4.674  0.00  0.00    +0.254 A 
ATOM      9  O   UNL     1       3.523   5.267  -3.814  0.00  0.00    -0.281 OA
ATOM     10  C   UNL     1       2.746   6.264  -5.790  0.00  0.00    +0.242 A 
ATOM     11  O   UNL     1       3.846   6.821  -5.990  0.00  0.00    -0.283 OA
ATOM     12  C   UNL     1       1.702   6.482  -6.682  0.00  0.00    +0.114 A 
ATOM     13  C   UNL     1       0.426   6.457  -6.174  0.00  0.00    +0.084 A 
ATOM     14  O   UNL     1      -2.488   6.554  -2.442  0.00  0.00    -0.336 OA
ATOM     15  C   UNL     1      -2.724   5.740  -1.320  0.00  0.00    +0.146 C 
ATOM     16  C   UNL     1       0.870   5.336  -2.788  0.00  0.00    +0.270 C 
ATOM     17  O   UNL     1       1.813   5.307  -1.939  0.00  0.00    -0.268 OA
ATOM     18  C   UNL     1      -1.655   6.155  -0.312  0.00  0.00    +0.052 C 
ENDROOT
BRANCH  12  19
ATOM     19  C   UNL     1       2.013   6.604  -8.106  0.00  0.00    +0.270 C 
ATOM     20  N   UNL     1       1.926   5.432  -8.929  0.00  0.00    -0.197 NA
ATOM     21  O   UNL     1       1.789   7.670  -8.759  0.00  0.00    -0.268 OA
BRANCH  20  22
ATOM     22  C   UNL     1       2.471   5.343 -10.252  0.00  0.00    +0.144 C 
BRANCH  22  23
ATOM     23  C   UNL     1       3.950   5.181 -10.086  0.00  0.00    +0.027 A 
ATOM     24  C   UNL     1       4.716   6.153 -10.720  0.00  0.00    +0.140 A 
ATOM     25  F   UNL     1       4.150   7.044 -11.586  0.00  0.00    -0.204 F 
ATOM     26  C   UNL     1       6.017   6.404 -10.336  0.00  0.00    +0.059 A 
ATOM     27  C   UNL     1       6.547   5.727  -9.247  0.00  0.00    +0.142 A 
ATOM     28  F   UNL     1       7.876   5.898  -9.014  0.00  0.00    -0.204 F 
ATOM     29  C   UNL     1       5.766   4.815  -8.578  0.00  0.00    +0.030 A 
ATOM     30  C   UNL     1       4.406   4.813  -8.825  0.00  0.00    +0.002 A 
ENDBRANCH  22  23
ENDBRANCH  20  22
ENDBRANCH  12  19
TORSDOF 3
ENDMDL
MODEL 7
REMARK VINA RESULT:      -9.0      3.567      8.969
REMARK  Name = 
REMARK  3 active torsions:
REMARK  status: ('A' for Active; 'I' for Inactive)
REMARK    1  A    between atoms: C_10  and  C_11
REMARK    2  A    between atoms: N_13  and  C_14
REMARK    3  A    between atoms: C_14  and  C_15
REMARK                            x       y       z     vdW  Elec       q    Type
REMARK                         _______ _______ _______ _____ _____    ______ ____
ROOT
ATOM      1  C   UNL     1      -1.248   5.356  -2.827  0.00  0.00    +0.022 C 
ATOM      2  C   UNL     1       0.380   5.069  -2.627  0.00  0.00    +0.080 C 
ATOM      3  N   UNL     1       0.748   6.413  -3.404  0.00  0.00    -0.253 N 
ATOM      4  C   UNL     1       2.360   6.582  -3.356  0.00  0.00    +0.218 C 
ATOM      5  C   UNL     1       2.595   5.222  -4.350  0.00  0.00    +0.157 C 
ATOM      6  N   UNL     1       2.332   5.824  -5.659  0.00  0.00    -0.315 N 
ATOM      7  C   UNL     1       1.110   6.358  -5.931  0.00  0.00    +0.157 A 
ATOM      8  C   UNL     1       0.510   6.152  -7.173  0.00  0.00    +0.254 A 
ATOM      9  O   UNL     1      -0.878   6.161  -7.339  0.00  0.00    -0.281 OA
ATOM     10  C   UNL     1       1.206   5.420  -8.123  0.00  0.00    +0.242 A 
ATOM     11  O   UNL     1       0.669   4.714  -9.003  0.00  0.00    -0.283 OA
ATOM     12  C   UNL     1       2.591   5.421  -8.003  0.00  0.00    +0.114 A 
ATOM     13  C   UNL     1       3.113   5.611  -6.746  0.00  0.00    +0.084 A 
ATOM     14  O   UNL     1       2.515   5.734  -2.050  0.00  0.00    -0.336 OA
ATOM     15  C   UNL     1       1.764   6.503  -1.145  0.00  0.00    +0.146 C 
ATOM     16  C   UNL     1       0.248   6.438  -4.740  0.00  0.00    +0.270 C 
ATOM     17  O   UNL     1      -1.009   6.269  -4.808  0.00  0.00    -0.268 OA
ATOM     18  C   UNL     1       0.376   5.867  -1.158  0.00  0.00    +0.052 C 
ENDROOT
BRANCH  12  19
ATOM     19  C   UNL     1       3.398   5.341  -9.220  0.00  0.00    +0.270 C 
ATOM     20  N   UNL     1       3.697   6.555  -9.925  0.00  0.00    -0.197 NA
ATOM     21  O   UNL     1       4.294   4.456  -9.381  0.00  0.00    -0.268 OA
BRANCH  20  22
ATOM     22  C   UNL     1       4.219   6.595 -11.260  0.00  0.00    +0.144 C 
BRANCH  22  23
ATOM     23  C   UNL     1       5.664   6.216 -11.155  0.00  0.00    +0.027 A 
ATOM     24  C   UNL     1       6.110   5.348 -12.146  0.00  0.00    +0.140 A 
ATOM     25  F   UNL     1       5.234   4.745 -13.003  0.00  0.00    -0.204 F 
ATOM     26  C   UNL     1       7.450   5.237 -12.451  0.00  0.00    +0.059 A 
ATOM     27  C   UNL     1       8.365   6.059 -11.809  0.00  0.00    +0.142 A 
ATOM     28  F   UNL     1       9.680   5.796 -12.033  0.00  0.00    -0.204 F 
ATOM     29  C   UNL     1       7.915   6.965 -10.879  0.00  0.00    +0.030 A 
ATOM     30  C   UNL     1       6.558   7.227 -10.822  0.00  0.00    +0.002 A 
ENDBRANCH  22  23
ENDBRANCH  20  22
ENDBRANCH  12  19
TORSDOF 3
ENDMDL
MODEL 8
REMARK VINA RESULT:      -8.8      3.914      9.173
REMARK  Name = 
REMARK  3 active torsions:
REMARK  status: ('A' for Active; 'I' for Inactive)
REMARK    1  A    between atoms: C_10  and  C_11
REMARK    2  A    between atoms: N_13  and  C_14
REMARK    3  A    between atoms: C_14  and  C_15
REMARK                            x       y       z     vdW  Elec       q    Type
REMARK                         _______ _______ _______ _____ _____    ______ ____
ROOT
ATOM      1  C   UNL     1      -3.533   5.003  -4.825  0.00  0.00    +0.022 C 
ATOM      2  C   UNL     1      -2.456   5.140  -3.562  0.00  0.00    +0.080 C 
ATOM      3  N   UNL     1      -1.802   6.440  -4.215  0.00  0.00    -0.253 N 
ATOM      4  C   UNL     1      -0.680   6.996  -3.184  0.00  0.00    +0.218 C 
ATOM      5  C   UNL     1       0.307   5.632  -3.424  0.00  0.00    +0.157 C 
ATOM      6  N   UNL     1       0.942   6.006  -4.690  0.00  0.00    -0.315 N 
ATOM      7  C   UNL     1       0.183   6.197  -5.803  0.00  0.00    +0.157 A 
ATOM      8  C   UNL     1       0.612   5.719  -7.041  0.00  0.00    +0.254 A 
ATOM      9  O   UNL     1      -0.284   5.375  -8.057  0.00  0.00    -0.281 OA
ATOM     10  C   UNL     1       1.839   5.076  -7.105  0.00  0.00    +0.242 A 
ATOM     11  O   UNL     1       2.120   4.170  -7.918  0.00  0.00    -0.283 OA
ATOM     12  C   UNL     1       2.764   5.424  -6.128  0.00  0.00    +0.114 A 
ATOM     13  C   UNL     1       2.270   5.870  -4.925  0.00  0.00    +0.084 A 
ATOM     14  O   UNL     1      -1.365   6.357  -1.931  0.00  0.00    -0.336 OA
ATOM     15  C   UNL     1      -2.607   7.018  -1.944  0.00  0.00    +0.146 C 
ATOM     16  C   UNL     1      -1.260   6.198  -5.514  0.00  0.00    +0.270 C 
ATOM     17  O   UNL     1      -2.110   5.725  -6.330  0.00  0.00    -0.268 OA
ATOM     18  C   UNL     1      -3.540   6.069  -2.692  0.00  0.00    +0.052 C 
ENDROOT
BRANCH  12  19
ATOM     19  C   UNL     1       4.186   5.407  -6.472  0.00  0.00    +0.270 C 
ATOM     20  N   UNL     1       4.554   5.312  -7.856  0.00  0.00    -0.197 NA
ATOM     21  O   UNL     1       5.056   6.021  -5.782  0.00  0.00    -0.268 OA
BRANCH  20  22
ATOM     22  C   UNL     1       5.877   5.000  -8.310  0.00  0.00    +0.144 C 
BRANCH  22  23
ATOM     23  C   UNL     1       6.205   6.006  -9.369  0.00  0.00    +0.027 A 
ATOM     24  C   UNL     1       7.389   5.763 -10.055  0.00  0.00    +0.140 A 
ATOM     25  F   UNL     1       8.262   4.799  -9.637  0.00  0.00    -0.204 F 
ATOM     26  C   UNL     1       7.624   6.314 -11.298  0.00  0.00    +0.059 A 
ATOM     27  C   UNL     1       6.630   7.066 -11.907  0.00  0.00    +0.142 A 
ATOM     28  F   UNL     1       6.973   7.712 -13.054  0.00  0.00    -0.204 F 
ATOM     29  C   UNL     1       5.433   7.249 -11.256  0.00  0.00    +0.030 A 
ATOM     30  C   UNL     1       5.154   6.452 -10.162  0.00  0.00    +0.002 A 
ENDBRANCH  22  23
ENDBRANCH  20  22
ENDBRANCH  12  19
TORSDOF 3
ENDMDL
MODEL 9
REMARK VINA RESULT:      -8.8      3.650      9.066
REMARK  Name = 
REMARK  3 active torsions:
REMARK  status: ('A' for Active; 'I' for Inactive)
REMARK    1  A    between atoms: C_10  and  C_11
REMARK    2  A    between atoms: N_13  and  C_14
REMARK    3  A    between atoms: C_14  and  C_15
REMARK                            x       y       z     vdW  Elec       q    Type
REMARK                         _______ _______ _______ _____ _____    ______ ____
ROOT
ATOM      1  C   UNL     1      -0.396   6.195  -1.033  0.00  0.00    +0.022 C 
ATOM      2  C   UNL     1      -1.287   6.817  -2.295  0.00  0.00    +0.080 C 
ATOM      3  N   UNL     1      -1.025   5.509  -3.171  0.00  0.00    -0.253 N 
ATOM      4  C   UNL     1      -1.856   5.670  -4.554  0.00  0.00    +0.218 C 
ATOM      5  C   UNL     1      -0.871   6.955  -5.071  0.00  0.00    +0.157 C 
ATOM      6  N   UNL     1       0.280   6.198  -5.571  0.00  0.00    -0.315 N 
ATOM      7  C   UNL     1       0.998   5.410  -4.726  0.00  0.00    +0.157 A 
ATOM      8  C   UNL     1       2.390   5.381  -4.799  0.00  0.00    +0.254 A 
ATOM      9  O   UNL     1       3.187   5.081  -3.691  0.00  0.00    -0.281 OA
ATOM     10  C   UNL     1       3.011   6.150  -5.772  0.00  0.00    +0.242 A 
ATOM     11  O   UNL     1       4.148   6.653  -5.656  0.00  0.00    -0.283 OA
ATOM     12  C   UNL     1       2.254   6.434  -6.903  0.00  0.00    +0.114 A 
ATOM     13  C   UNL     1       0.888   6.465  -6.753  0.00  0.00    +0.084 A 
ATOM     14  O   UNL     1      -2.909   6.644  -3.930  0.00  0.00    -0.336 OA
ATOM     15  C   UNL     1      -3.472   5.824  -2.936  0.00  0.00    +0.146 C 
ATOM     16  C   UNL     1       0.362   5.266  -3.406  0.00  0.00    +0.270 C 
ATOM     17  O   UNL     1       1.042   5.175  -2.339  0.00  0.00    -0.268 OA
ATOM     18  C   UNL     1      -2.694   6.168  -1.668  0.00  0.00    +0.052 C 
ENDROOT
BRANCH  12  19
ATOM     19  C   UNL     1       2.939   6.565  -8.189  0.00  0.00    +0.270 C 
ATOM     20  N   UNL     1       2.813   5.500  -9.143  0.00  0.00    -0.197 NA
ATOM     21  O   UNL     1       3.127   7.691  -8.744  0.00  0.00    -0.268 OA
BRANCH  20  22
ATOM     22  C   UNL     1       3.647   5.364 -10.301  0.00  0.00    +0.144 C 
BRANCH  22  23
ATOM     23  C   UNL     1       2.807   5.771 -11.471  0.00  0.00    +0.027 A 
ATOM     24  C   UNL     1       3.405   5.576 -12.712  0.00  0.00    +0.140 A 
ATOM     25  F   UNL     1       4.723   5.236 -12.814  0.00  0.00    -0.204 F 
ATOM     26  C   UNL     1       2.652   5.491 -13.864  0.00  0.00    +0.059 A 
ATOM     27  C   UNL     1       1.268   5.528 -13.777  0.00  0.00    +0.142 A 
ATOM     28  F   UNL     1       0.587   5.600 -14.952  0.00  0.00    -0.204 F 
ATOM     29  C   UNL     1       0.676   5.653 -12.543  0.00  0.00    +0.030 A 
ATOM     30  C   UNL     1       1.456   5.450 -11.419  0.00  0.00    +0.002 A 
ENDBRANCH  22  23
ENDBRANCH  20  22
ENDBRANCH  12  19
TORSDOF 3
ENDMDL
