MODEL 1
REMARK VINA RESULT:      -6.5      0.000      0.000
REMARK  Name = 
REMARK  3 active torsions:
REMARK  status: ('A' for Active; 'I' for Inactive)
REMARK    1  A    between atoms: CA_2  and  CB_3
REMARK    2  A    between atoms: CA_2  and  C_13
REMARK    3  A    between atoms: CB_3  and  CG_4
REMARK                            x       y       z     vdW  Elec       q    Type
REMARK                         _______ _______ _______ _____ _____    ______ ____
ROOT
ATOM      1  CG  TRP A   1       3.975   5.916  -9.251  0.00  0.00    +0.000 A 
ATOM      2  CD2 TRP A   1       5.066   6.399  -9.966  0.00  0.00    +0.015 A 
ATOM      3  CE2 TRP A   1       6.171   5.751  -9.477  0.00  0.00    +0.081 A 
ATOM      4  CZ2 TRP A   1       7.409   6.133  -9.876  0.00  0.00    +0.019 A 
ATOM      5  CH2 TRP A   1       7.596   7.196 -10.706  0.00  0.00    +0.002 A 
ATOM      6  CZ3 TRP A   1       6.517   7.801 -11.328  0.00  0.00    +0.000 A 
ATOM      7  NE1 TRP A   1       5.794   4.911  -8.511  0.00  0.00    -0.244 NA
ATOM      8  CE3 TRP A   1       5.267   7.448 -10.836  0.00  0.00    +0.001 A 
ATOM      9  CD1 TRP A   1       4.463   4.847  -8.582  0.00  0.00    +0.095 A 
ENDROOT
BRANCH   1  10
ATOM     10  CB  TRP A   1       2.653   6.558  -9.343  0.00  0.00    +0.059 C 
BRANCH  10  12
ATOM     11  N   TRP A   1       0.451   6.008  -8.783  0.00  0.00    -0.120 NA
ATOM     12  CA  TRP A   1       1.867   5.819  -8.075  0.00  0.00    +0.199 C 
BRANCH  12  13
ATOM     13  C   TRP A   1       1.700   7.210  -7.243  0.00  0.00    +0.382 C 
ATOM     14  OXT TRP A   1       2.065   8.363  -7.844  0.00  0.00    -0.244 OA
ATOM     15  O   TRP A   1       0.927   7.089  -6.246  0.00  0.00    -0.244 OA
ENDBRANCH  12  13
ENDBRANCH  10  12
ENDBRANCH   1  10
TORSDOF 3
ENDMDL
MODEL 2
REMARK VINA RESULT:      -6.3      1.784      2.083
REMARK  Name = 
REMARK  3 active torsions:
REMARK  status: ('A' for Active; 'I' for Inactive)
REMARK    1  A    between atoms: CA_2  and  CB_3
REMARK    2  A    between atoms: CA_2  and  C_13
REMARK    3  A    between atoms: CB_3  and  CG_4
REMARK                            x       y       z     vdW  Elec       q    Type
REMARK                         _______ _______ _______ _____ _____    ______ ____
ROOT
ATOM      1  CG  TRP A   1       3.835   5.920  -9.394  0.00  0.00    +0.000 A 
ATOM      2  CD2 TRP A   1       5.007   6.350 -10.006  0.00  0.00    +0.015 A 
ATOM      3  CE2 TRP A   1       6.035   5.688  -9.388  0.00  0.00    +0.081 A 
ATOM      4  CZ2 TRP A   1       7.319   6.022  -9.668  0.00  0.00    +0.019 A 
ATOM      5  CH2 TRP A   1       7.623   7.053 -10.504  0.00  0.00    +0.002 A 
ATOM      6  CZ3 TRP A   1       6.632   7.668 -11.251  0.00  0.00    +0.000 A 
ATOM      7  NE1 TRP A   1       5.536   4.890  -8.442  0.00  0.00    -0.244 NA
ATOM      8  CE3 TRP A   1       5.328   7.365 -10.881  0.00  0.00    +0.001 A 
ATOM      9  CD1 TRP A   1       4.218   4.860  -8.647  0.00  0.00    +0.095 A 
ENDROOT
BRANCH   1  10
ATOM     10  CB  TRP A   1       2.549   6.595  -9.640  0.00  0.00    +0.059 C 
BRANCH  10  12
ATOM     11  N   TRP A   1       1.748   6.393 -11.827  0.00  0.00    -0.120 NA
ATOM     12  CA  TRP A   1       1.768   5.440 -10.549  0.00  0.00    +0.199 C 
BRANCH  12  13
ATOM     13  C   TRP A   1       0.288   5.937 -10.084  0.00  0.00    +0.382 C 
ATOM     14  OXT TRP A   1      -0.135   5.614  -8.843  0.00  0.00    -0.244 OA
ATOM     15  O   TRP A   1      -0.167   6.864 -10.820  0.00  0.00    -0.244 OA
ENDBRANCH  12  13
ENDBRANCH  10  12
ENDBRANCH   1  10
TORSDOF 3
ENDMDL
MODEL 3
REMARK VINA RESULT:      -6.3      1.656      1.988
REMARK  Name = 
REMARK  3 active torsions:
REMARK  status: ('A' for Active; 'I' for Inactive)
REMARK    1  A    between atoms: CA_2  and  CB_3
REMARK    2  A    between atoms: CA_2  and  C_13
REMARK    3  A    between atoms: CB_3  and  CG_4
REMARK                            x       y       z     vdW  Elec       q    Type
REMARK                         _______ _______ _______ _____ _____    ______ ____
ROOT
ATOM      1  CG  TRP A   1       5.349   6.143  -9.957  0.00  0.00    +0.000 A 
ATOM      2  CD2 TRP A   1       6.146   6.056 -11.094  0.00  0.00    +0.015 A 
ATOM      3  CE2 TRP A   1       7.389   5.665 -10.670  0.00  0.00    +0.081 A 
ATOM      4  CZ2 TRP A   1       8.426   5.647 -11.544  0.00  0.00    +0.019 A 
ATOM      5  CH2 TRP A   1       8.285   6.077 -12.828  0.00  0.00    +0.002 A 
ATOM      6  CZ3 TRP A   1       7.030   6.360 -13.342  0.00  0.00    +0.000 A 
ATOM      7  NE1 TRP A   1       7.372   5.514  -9.345  0.00  0.00    -0.244 NA
ATOM      8  CE3 TRP A   1       6.007   6.451 -12.407  0.00  0.00    +0.001 A 
ATOM      9  CD1 TRP A   1       6.087   5.555  -8.988  0.00  0.00    +0.095 A 
ENDROOT
BRANCH   1  10
ATOM     10  CB  TRP A   1       4.014   6.764 -10.002  0.00  0.00    +0.059 C 
BRANCH  10  12
ATOM     11  N   TRP A   1       2.484   5.086  -9.447  0.00  0.00    -0.120 NA
ATOM     12  CA  TRP A   1       3.342   6.140  -8.613  0.00  0.00    +0.199 C 
BRANCH  12  13
ATOM     13  C   TRP A   1       2.119   7.217  -8.607  0.00  0.00    +0.382 C 
ATOM     14  OXT TRP A   1       2.230   8.307  -7.819  0.00  0.00    -0.244 OA
ATOM     15  O   TRP A   1       1.346   7.079  -9.603  0.00  0.00    -0.244 OA
ENDBRANCH  12  13
ENDBRANCH  10  12
ENDBRANCH   1  10
TORSDOF 3
ENDMDL
MODEL 4
REMARK VINA RESULT:      -6.1      2.495      3.009
REMARK  Name = 
REMARK  3 active torsions:
REMARK  status: ('A' for Active; 'I' for Inactive)
REMARK    1  A    between atoms: CA_2  and  CB_3
REMARK    2  A    between atoms: CA_2  and  C_13
REMARK    3  A    between atoms: CB_3  and  CG_4
REMARK                            x       y       z     vdW  Elec       q    Type
REMARK                         _______ _______ _______ _____ _____    ______ ____
ROOT
ATOM      1  CG  TRP A   1       4.436   5.788 -11.374  0.00  0.00    +0.000 A 
ATOM      2  CD2 TRP A   1       5.809   5.994 -11.436  0.00  0.00    +0.015 A 
ATOM      3  CE2 TRP A   1       6.238   5.423 -12.606  0.00  0.00    +0.081 A 
ATOM      4  CZ2 TRP A   1       7.566   5.329 -12.865  0.00  0.00    +0.019 A 
ATOM      5  CH2 TRP A   1       8.500   5.727 -11.959  0.00  0.00    +0.002 A 
ATOM      6  CZ3 TRP A   1       8.126   6.425 -10.822  0.00  0.00    +0.000 A 
ATOM      7  NE1 TRP A   1       5.193   4.889 -13.241  0.00  0.00    -0.244 NA
ATOM      8  CE3 TRP A   1       6.765   6.430 -10.544  0.00  0.00    +0.001 A 
ATOM      9  CD1 TRP A   1       4.109   5.347 -12.611  0.00  0.00    +0.095 A 
ENDROOT
BRANCH   1  10
ATOM     10  CB  TRP A   1       3.673   6.059 -10.143  0.00  0.00    +0.059 C 
BRANCH  10  12
ATOM     11  N   TRP A   1       2.169   4.479  -9.305  0.00  0.00    -0.120 NA
ATOM     12  CA  TRP A   1       3.757   4.572  -9.400  0.00  0.00    +0.199 C 
BRANCH  12  13
ATOM     13  C   TRP A   1       3.866   5.217  -7.908  0.00  0.00    +0.382 C 
ATOM     14  OXT TRP A   1       2.803   5.108  -7.084  0.00  0.00    -0.244 OA
ATOM     15  O   TRP A   1       5.065   5.455  -7.569  0.00  0.00    -0.244 OA
ENDBRANCH  12  13
ENDBRANCH  10  12
ENDBRANCH   1  10
TORSDOF 3
ENDMDL
MODEL 5
REMARK VINA RESULT:      -6.0      2.854      3.279
REMARK  Name = 
REMARK  3 active torsions:
REMARK  status: ('A' for Active; 'I' for Inactive)
REMARK    1  A    between atoms: CA_2  and  CB_3
REMARK    2  A    between atoms: CA_2  and  C_13
REMARK    3  A    between atoms: CB_3  and  CG_4
REMARK                            x       y       z     vdW  Elec       q    Type
REMARK                         _______ _______ _______ _____ _____    ______ ____
ROOT
ATOM      1  CG  TRP A   1       4.560   5.444 -11.415  0.00  0.00    +0.000 A 
ATOM      2  CD2 TRP A   1       5.916   5.733 -11.533  0.00  0.00    +0.015 A 
ATOM      3  CE2 TRP A   1       6.265   5.444 -12.826  0.00  0.00    +0.081 A 
ATOM      4  CZ2 TRP A   1       7.569   5.478 -13.197  0.00  0.00    +0.019 A 
ATOM      5  CH2 TRP A   1       8.561   5.726 -12.299  0.00  0.00    +0.002 A 
ATOM      6  CZ3 TRP A   1       8.258   6.148 -11.015  0.00  0.00    +0.000 A 
ATOM      7  NE1 TRP A   1       5.190   5.001 -13.481  0.00  0.00    -0.244 NA
ATOM      8  CE3 TRP A   1       6.926   6.021 -10.642  0.00  0.00    +0.001 A 
ATOM      9  CD1 TRP A   1       4.148   5.257 -12.689  0.00  0.00    +0.095 A 
ENDROOT
BRANCH   1  10
ATOM     10  CB  TRP A   1       3.895   5.409 -10.101  0.00  0.00    +0.059 C 
BRANCH  10  12
ATOM     11  N   TRP A   1       2.334   6.842  -9.114  0.00  0.00    -0.120 NA
ATOM     12  CA  TRP A   1       2.410   6.050 -10.495  0.00  0.00    +0.199 C 
BRANCH  12  13
ATOM     13  C   TRP A   1       1.593   4.782  -9.879  0.00  0.00    +0.382 C 
ATOM     14  OXT TRP A   1       0.486   4.359 -10.526  0.00  0.00    -0.244 OA
ATOM     15  O   TRP A   1       2.282   4.119  -9.046  0.00  0.00    -0.244 OA
ENDBRANCH  12  13
ENDBRANCH  10  12
ENDBRANCH   1  10
TORSDOF 3
ENDMDL
MODEL 6
REMARK VINA RESULT:      -6.0      3.832      5.790
REMARK  Name = 
REMARK  3 active torsions:
REMARK  status: ('A' for Active; 'I' for Inactive)
REMARK    1  A    between atoms: CA_2  and  CB_3
REMARK    2  A    between atoms: CA_2  and  C_13
REMARK    3  A    between atoms: CB_3  and  CG_4
REMARK                            x       y       z     vdW  Elec       q    Type
REMARK                         _______ _______ _______ _____ _____    ______ ____
ROOT
ATOM      1  CG  TRP A   1       4.590   5.422 -10.804  0.00  0.00    +0.000 A 
ATOM      2  CD2 TRP A   1       3.249   5.704 -11.038  0.00  0.00    +0.015 A 
ATOM      3  CE2 TRP A   1       2.551   5.198  -9.973  0.00  0.00    +0.081 A 
ATOM      4  CZ2 TRP A   1       1.196   5.184  -9.999  0.00  0.00    +0.019 A 
ATOM      5  CH2 TRP A   1       0.497   5.600 -11.090  0.00  0.00    +0.002 A 
ATOM      6  CZ3 TRP A   1       1.143   6.238 -12.137  0.00  0.00    +0.000 A 
ATOM      7  NE1 TRP A   1       3.406   4.631  -9.120  0.00  0.00    -0.244 NA
ATOM      8  CE3 TRP A   1       2.530   6.160 -12.121  0.00  0.00    +0.001 A 
ATOM      9  CD1 TRP A   1       4.623   5.008  -9.517  0.00  0.00    +0.095 A 
ENDROOT
BRANCH   1  10
ATOM     10  CB  TRP A   1       5.609   5.610 -11.852  0.00  0.00    +0.059 C 
BRANCH  10  12
ATOM     11  N   TRP A   1       7.037   7.329 -11.169  0.00  0.00    -0.120 NA
ATOM     12  CA  TRP A   1       6.980   5.756 -10.920  0.00  0.00    +0.199 C 
BRANCH  12  13
ATOM     13  C   TRP A   1       7.978   5.463 -12.175  0.00  0.00    +0.382 C 
ATOM     14  OXT TRP A   1       9.272   5.833 -12.063  0.00  0.00    -0.244 OA
ATOM     15  O   TRP A   1       7.503   4.613 -12.985  0.00  0.00    -0.244 OA
ENDBRANCH  12  13
ENDBRANCH  10  12
ENDBRANCH   1  10
TORSDOF 3
ENDMDL
MODEL 7
REMARK VINA RESULT:      -6.0      1.906      2.384
REMARK  Name = 
REMARK  3 active torsions:
REMARK  status: ('A' for Active; 'I' for Inactive)
REMARK    1  A    between atoms: CA_2  and  CB_3
REMARK    2  A    between atoms: CA_2  and  C_13
REMARK    3  A    between atoms: CB_3  and  CG_4
REMARK                            x       y       z     vdW  Elec       q    Type
REMARK                         _______ _______ _______ _____ _____    ______ ____
ROOT
ATOM      1  CG  TRP A   1       4.004   6.253 -10.065  0.00  0.00    +0.000 A 
ATOM      2  CD2 TRP A   1       5.359   6.077 -10.325  0.00  0.00    +0.015 A 
ATOM      3  CE2 TRP A   1       5.468   5.811 -11.665  0.00  0.00    +0.081 A 
ATOM      4  CZ2 TRP A   1       6.664   5.438 -12.183  0.00  0.00    +0.019 A 
ATOM      5  CH2 TRP A   1       7.758   5.250 -11.395  0.00  0.00    +0.002 A 
ATOM      6  CZ3 TRP A   1       7.737   5.626 -10.062  0.00  0.00    +0.000 A 
ATOM      7  NE1 TRP A   1       4.252   5.821 -12.213  0.00  0.00    -0.244 NA
ATOM      8  CE3 TRP A   1       6.483   5.922  -9.543  0.00  0.00    +0.001 A 
ATOM      9  CD1 TRP A   1       3.439   6.338 -11.291  0.00  0.00    +0.095 A 
ENDROOT
BRANCH   1  10
ATOM     10  CB  TRP A   1       3.489   6.321  -8.687  0.00  0.00    +0.059 C 
BRANCH  10  12
ATOM     11  N   TRP A   1       2.178   8.093  -7.909  0.00  0.00    -0.120 NA
ATOM     12  CA  TRP A   1       1.959   6.917  -8.962  0.00  0.00    +0.199 C 
BRANCH  12  13
ATOM     13  C   TRP A   1       1.279   5.957  -7.835  0.00  0.00    +0.382 C 
ATOM     14  OXT TRP A   1       1.816   5.945  -6.596  0.00  0.00    -0.244 OA
ATOM     15  O   TRP A   1       0.111   5.583  -8.156  0.00  0.00    -0.244 OA
ENDBRANCH  12  13
ENDBRANCH  10  12
ENDBRANCH   1  10
TORSDOF 3
ENDMDL
MODEL 8
REMARK VINA RESULT:      -5.9      4.069      7.837
REMARK  Name = 
REMARK  3 active torsions:
REMARK  status: ('A' for Active; 'I' for Inactive)
REMARK    1  A    between atoms: CA_2  and  CB_3
REMARK    2  A    between atoms: CA_2  and  C_13
REMARK    3  A    between atoms: CB_3  and  CG_4
REMARK                            x       y       z     vdW  Elec       q    Type
REMARK                         _______ _______ _______ _____ _____    ______ ____
ROOT
ATOM      1  CG  TRP A   1      -0.287   5.748  -5.572  0.00  0.00    +0.000 A 
ATOM      2  CD2 TRP A   1      -0.934   5.657  -4.345  0.00  0.00    +0.015 A 
ATOM      3  CE2 TRP A   1      -2.278   5.648  -4.611  0.00  0.00    +0.081 A 
ATOM      4  CZ2 TRP A   1      -3.169   5.724  -3.592  0.00  0.00    +0.019 A 
ATOM      5  CH2 TRP A   1      -2.766   5.880  -2.301  0.00  0.00    +0.002 A 
ATOM      6  CZ3 TRP A   1      -1.428   5.766  -1.963  0.00  0.00    +0.000 A 
ATOM      7  NE1 TRP A   1      -2.463   5.729  -5.930  0.00  0.00    -0.244 NA
ATOM      8  CE3 TRP A   1      -0.538   5.774  -3.030  0.00  0.00    +0.001 A 
ATOM      9  CD1 TRP A   1      -1.264   5.528  -6.481  0.00  0.00    +0.095 A 
ENDROOT
BRANCH   1  10
ATOM     10  CB  TRP A   1       1.158   6.021  -5.660  0.00  0.00    +0.059 C 
BRANCH  10  12
ATOM     11  N   TRP A   1       2.527   5.092  -7.311  0.00  0.00    -0.120 NA
ATOM     12  CA  TRP A   1       1.342   6.159  -7.308  0.00  0.00    +0.199 C 
BRANCH  12  13
ATOM     13  C   TRP A   1       2.386   7.404  -7.184  0.00  0.00    +0.382 C 
ATOM     14  OXT TRP A   1       2.206   8.473  -7.987  0.00  0.00    -0.244 OA
ATOM     15  O   TRP A   1       3.053   7.372  -6.105  0.00  0.00    -0.244 OA
ENDBRANCH  12  13
ENDBRANCH  10  12
ENDBRANCH   1  10
TORSDOF 3
ENDMDL
MODEL 9
REMARK VINA RESULT:      -5.9      3.521      6.706
REMARK  Name = 
REMARK  3 active torsions:
REMARK  status: ('A' for Active; 'I' for Inactive)
REMARK    1  A    between atoms: CA_2  and  CB_3
REMARK    2  A    between atoms: CA_2  and  C_13
REMARK    3  A    between atoms: CB_3  and  CG_4
REMARK                            x       y       z     vdW  Elec       q    Type
REMARK                         _______ _______ _______ _____ _____    ______ ____
ROOT
ATOM      1  CG  TRP A   1       1.387   4.807  -5.988  0.00  0.00    +0.000 A 
ATOM      2  CD2 TRP A   1       0.063   5.228  -5.928  0.00  0.00    +0.015 A 
ATOM      3  CE2 TRP A   1      -0.196   5.521  -4.615  0.00  0.00    +0.081 A 
ATOM      4  CZ2 TRP A   1      -1.461   5.809  -4.223  0.00  0.00    +0.019 A 
ATOM      5  CH2 TRP A   1      -2.509   5.749  -5.091  0.00  0.00    +0.002 A 
ATOM      6  CZ3 TRP A   1      -2.289   5.585  -6.448  0.00  0.00    +0.000 A 
ATOM      7  NE1 TRP A   1       0.903   5.297  -3.893  0.00  0.00    -0.244 NA
ATOM      8  CE3 TRP A   1      -1.000   5.210  -6.805  0.00  0.00    +0.001 A 
ATOM      9  CD1 TRP A   1       1.891   5.123  -4.773  0.00  0.00    +0.095 A 
ENDROOT
BRANCH   1  10
ATOM     10  CB  TRP A   1       1.941   4.186  -7.203  0.00  0.00    +0.059 C 
BRANCH  10  12
ATOM     11  N   TRP A   1       1.899   4.888  -9.432  0.00  0.00    -0.120 NA
ATOM     12  CA  TRP A   1       2.385   5.541  -8.062  0.00  0.00    +0.199 C 
BRANCH  12  13
ATOM     13  C   TRP A   1       3.911   5.015  -8.286  0.00  0.00    +0.382 C 
ATOM     14  OXT TRP A   1       4.855   5.389  -7.396  0.00  0.00    -0.244 OA
ATOM     15  O   TRP A   1       3.973   4.032  -9.085  0.00  0.00    -0.244 OA
ENDBRANCH  12  13
ENDBRANCH  10  12
ENDBRANCH   1  10
TORSDOF 3
ENDMDL
