MODEL 1
REMARK VINA RESULT:     -10.1      0.000      0.000
REMARK  Name = 
REMARK  5 active torsions:
REMARK  status: ('A' for Active; 'I' for Inactive)
REMARK    1  A    between atoms: C_5  and  N_6
REMARK    2  A    between atoms: C_7  and  C_9
REMARK    3  A    between atoms: C_9  and  C_10
REMARK    4  A    between atoms: C_24  and  C_25
REMARK    5  A    between atoms: C_29  and  C_30
REMARK                            x       y       z     vdW  Elec       q    Type
REMARK                         _______ _______ _______ _____ _____    ______ ____
ROOT
ATOM      1  N   UNL     1       1.329   6.124  -0.348  0.00  0.00    -0.160 NA
ATOM      2  C   UNL     1      -0.031   5.837  -0.667  0.00  0.00    +0.250 C 
ATOM      3  O   UNL     1      -0.217   4.738  -1.273  0.00  0.00    -0.273 OA
ENDROOT
BRANCH   1   8
ATOM      4  C   UNL     1       5.492   7.459  -3.683  0.00  0.00    +0.033 C 
ATOM      5  C   UNL     1       4.448   6.831  -2.814  0.00  0.00    -0.004 A 
ATOM      6  C   UNL     1       3.286   6.303  -3.365  0.00  0.00    +0.079 A 
ATOM      7  N   UNL     1       2.299   5.874  -2.571  0.00  0.00    -0.229 NA
ATOM      8  C   UNL     1       2.411   5.780  -1.225  0.00  0.00    +0.154 A 
ATOM      9  C   UNL     1       3.692   5.973  -0.722  0.00  0.00    +0.036 A 
ATOM     10  C   UNL     1       4.711   6.533  -1.483  0.00  0.00    +0.000 A 
BRANCH   6  11
ATOM     11  C   UNL     1       3.245   6.022  -4.804  0.00  0.00    +0.018 A 
ATOM     12  C   UNL     1       2.642   6.898  -5.682  0.00  0.00    +0.008 A 
ATOM     13  C   UNL     1       2.137   6.522  -6.908  0.00  0.00    +0.080 A 
ATOM     14  C   UNL     1       1.964   5.161  -7.109  0.00  0.00    +0.007 A 
ATOM     15  C   UNL     1       2.700   4.246  -6.368  0.00  0.00    +0.000 A 
ATOM     16  C   UNL     1       3.417   4.727  -5.279  0.00  0.00    +0.001 A 
BRANCH  13  17
ATOM     17  C   UNL     1       1.980   7.449  -8.027  0.00  0.00    +0.388 C 
ATOM     18  O   UNL     1       1.241   7.102  -9.162  0.00  0.00    -0.241 OA
ATOM     19  O   UNL     1       2.241   8.685  -7.916  0.00  0.00    -0.241 OA
ENDBRANCH  13  17
ENDBRANCH   6  11
ENDBRANCH   1   8
BRANCH   2  20
ATOM     20  C   UNL     1      -1.092   6.890  -0.714  0.00  0.00    +0.090 C 
ATOM     21  C   UNL     1      -1.912   7.042   0.599  0.00  0.00    +0.014 C 
ATOM     22  C   UNL     1      -0.901   8.067   0.232  0.00  0.00    +0.014 C 
BRANCH  20  23
ATOM     23  C   UNL     1      -1.861   7.087  -1.955  0.00  0.00    -0.011 A 
ATOM     24  C   UNL     1      -1.251   7.393  -3.164  0.00  0.00    +0.037 A 
ATOM     25  C   UNL     1      -1.773   6.943  -4.371  0.00  0.00    +0.181 A 
ATOM     26  O   UNL     1      -1.237   6.833  -5.656  0.00  0.00    -0.395 OA
ATOM     27  C   UNL     1      -1.560   5.555  -6.204  0.00  0.00    +0.589 C 
ATOM     28  O   UNL     1      -2.727   5.240  -5.470  0.00  0.00    -0.395 OA
ATOM     29  F   UNL     1      -0.506   4.710  -5.899  0.00  0.00    -0.125 F 
ATOM     30  F   UNL     1      -1.792   5.631  -7.561  0.00  0.00    -0.125 F 
ATOM     31  C   UNL     1      -2.881   6.108  -4.394  0.00  0.00    +0.182 A 
ATOM     32  C   UNL     1      -3.667   6.125  -3.251  0.00  0.00    +0.040 A 
ATOM     33  C   UNL     1      -3.153   6.582  -2.046  0.00  0.00    -0.001 A 
ENDBRANCH  20  23
ENDBRANCH   2  20
TORSDOF 5
ENDMDL
MODEL 2
REMARK VINA RESULT:      -9.9      5.793     10.598
REMARK  Name = 
REMARK  5 active torsions:
REMARK  status: ('A' for Active; 'I' for Inactive)
REMARK    1  A    between atoms: C_5  and  N_6
REMARK    2  A    between atoms: C_7  and  C_9
REMARK    3  A    between atoms: C_9  and  C_10
REMARK    4  A    between atoms: C_24  and  C_25
REMARK    5  A    between atoms: C_29  and  C_30
REMARK                            x       y       z     vdW  Elec       q    Type
REMARK                         _______ _______ _______ _____ _____    ______ ____
ROOT
ATOM      1  N   UNL     1       3.597   6.096 -14.719  0.00  0.00    -0.160 NA
ATOM      2  C   UNL     1       4.827   5.617 -14.179  0.00  0.00    +0.250 C 
ATOM      3  O   UNL     1       4.748   4.505 -13.572  0.00  0.00    -0.273 OA
ENDROOT
BRANCH   1   8
ATOM      4  C   UNL     1      -0.722   8.005 -11.903  0.00  0.00    +0.033 C 
ATOM      5  C   UNL     1       0.311   7.242 -12.669  0.00  0.00    -0.004 A 
ATOM      6  C   UNL     1       1.250   6.455 -12.012  0.00  0.00    +0.079 A 
ATOM      7  N   UNL     1       2.254   5.893 -12.694  0.00  0.00    -0.229 NA
ATOM      8  C   UNL     1       2.344   5.916 -14.045  0.00  0.00    +0.154 A 
ATOM      9  C   UNL     1       1.219   6.396 -14.705  0.00  0.00    +0.036 A 
ATOM     10  C   UNL     1       0.214   7.095 -14.047  0.00  0.00    +0.000 A 
BRANCH   6  11
ATOM     11  C   UNL     1       1.006   6.073 -10.617  0.00  0.00    +0.018 A 
ATOM     12  C   UNL     1       1.535   6.807  -9.577  0.00  0.00    +0.008 A 
ATOM     13  C   UNL     1       1.773   6.288  -8.322  0.00  0.00    +0.080 A 
ATOM     14  C   UNL     1       1.759   4.906  -8.216  0.00  0.00    +0.007 A 
ATOM     15  C   UNL     1       1.071   4.140  -9.148  0.00  0.00    +0.000 A 
ATOM     16  C   UNL     1       0.614   4.779 -10.294  0.00  0.00    +0.001 A 
BRANCH  13  17
ATOM     17  C   UNL     1       1.830   7.110  -7.114  0.00  0.00    +0.388 C 
ATOM     18  O   UNL     1       0.784   7.114  -6.187  0.00  0.00    -0.241 OA
ATOM     19  O   UNL     1       2.915   7.620  -6.700  0.00  0.00    -0.241 OA
ENDBRANCH  13  17
ENDBRANCH   6  11
ENDBRANCH   1   8
BRANCH   2  20
ATOM     20  C   UNL     1       6.005   6.506 -13.932  0.00  0.00    +0.090 C 
ATOM     21  C   UNL     1       7.179   6.320 -14.934  0.00  0.00    +0.014 C 
ATOM     22  C   UNL     1       6.309   7.522 -15.023  0.00  0.00    +0.014 C 
BRANCH  20  23
ATOM     23  C   UNL     1       6.410   6.801 -12.546  0.00  0.00    -0.011 A 
ATOM     24  C   UNL     1       5.485   6.983 -11.527  0.00  0.00    +0.037 A 
ATOM     25  C   UNL     1       5.765   6.601 -10.220  0.00  0.00    +0.181 A 
ATOM     26  O   UNL     1       4.960   6.382  -9.100  0.00  0.00    -0.395 OA
ATOM     27  C   UNL     1       5.340   5.163  -8.464  0.00  0.00    +0.589 C 
ATOM     28  O   UNL     1       6.685   5.052  -8.888  0.00  0.00    -0.395 OA
ATOM     29  F   UNL     1       4.540   4.166  -8.996  0.00  0.00    -0.125 F 
ATOM     30  F   UNL     1       5.223   5.250  -7.093  0.00  0.00    -0.125 F 
ATOM     31  C   UNL     1       6.953   5.953  -9.913  0.00  0.00    +0.182 A 
ATOM     32  C   UNL     1       7.979   6.116 -10.833  0.00  0.00    +0.040 A 
ATOM     33  C   UNL     1       7.705   6.507 -12.135  0.00  0.00    -0.001 A 
ENDBRANCH  20  23
ENDBRANCH   2  20
TORSDOF 5
ENDMDL
MODEL 3
REMARK VINA RESULT:      -9.6      4.204      6.300
REMARK  Name = 
REMARK  5 active torsions:
REMARK  status: ('A' for Active; 'I' for Inactive)
REMARK    1  A    between atoms: C_5  and  N_6
REMARK    2  A    between atoms: C_7  and  C_9
REMARK    3  A    between atoms: C_9  and  C_10
REMARK    4  A    between atoms: C_24  and  C_25
REMARK    5  A    between atoms: C_29  and  C_30
REMARK                            x       y       z     vdW  Elec       q    Type
REMARK                         _______ _______ _______ _____ _____    ______ ____
ROOT
ATOM      1  N   UNL     1       4.095   5.280  -7.233  0.00  0.00    -0.160 NA
ATOM      2  C   UNL     1       2.738   4.927  -6.969  0.00  0.00    +0.250 C 
ATOM      3  O   UNL     1       2.338   3.872  -7.549  0.00  0.00    -0.273 OA
ENDROOT
BRANCH   1   8
ATOM      4  C   UNL     1       6.735   7.123 -11.689  0.00  0.00    +0.033 C 
ATOM      5  C   UNL     1       6.053   6.368 -10.593  0.00  0.00    -0.004 A 
ATOM      6  C   UNL     1       4.718   5.997 -10.705  0.00  0.00    +0.079 A 
ATOM      7  N   UNL     1       4.081   5.450  -9.665  0.00  0.00    -0.229 NA
ATOM      8  C   UNL     1       4.701   5.084  -8.518  0.00  0.00    +0.154 A 
ATOM      9  C   UNL     1       6.089   5.132  -8.554  0.00  0.00    +0.036 A 
ATOM     10  C   UNL     1       6.782   5.801  -9.556  0.00  0.00    +0.000 A 
BRANCH   6  11
ATOM     11  C   UNL     1       4.085   6.012 -12.029  0.00  0.00    +0.018 A 
ATOM     12  C   UNL     1       2.804   6.493 -12.199  0.00  0.00    +0.008 A 
ATOM     13  C   UNL     1       1.980   6.116 -13.238  0.00  0.00    +0.080 A 
ATOM     14  C   UNL     1       2.362   4.986 -13.946  0.00  0.00    +0.007 A 
ATOM     15  C   UNL     1       3.690   4.580 -13.951  0.00  0.00    +0.000 A 
ATOM     16  C   UNL     1       4.553   5.189 -13.047  0.00  0.00    +0.001 A 
BRANCH  13  17
ATOM     17  C   UNL     1       0.882   6.947 -13.729  0.00  0.00    +0.388 C 
ATOM     18  O   UNL     1       0.330   6.748 -14.998  0.00  0.00    -0.241 OA
ATOM     19  O   UNL     1       0.191   7.672 -12.952  0.00  0.00    -0.241 OA
ENDBRANCH  13  17
ENDBRANCH   6  11
ENDBRANCH   1   8
BRANCH   2  20
ATOM     20  C   UNL     1       1.733   5.905  -6.449  0.00  0.00    +0.090 C 
ATOM     21  C   UNL     1       2.336   7.071  -5.615  0.00  0.00    +0.014 C 
ATOM     22  C   UNL     1       1.842   7.322  -6.994  0.00  0.00    +0.014 C 
BRANCH  20  23
ATOM     23  C   UNL     1       0.423   5.418  -5.981  0.00  0.00    -0.011 A 
ATOM     24  C   UNL     1       0.102   5.335  -4.633  0.00  0.00    +0.037 A 
ATOM     25  C   UNL     1      -1.197   5.541  -4.186  0.00  0.00    +0.181 A 
ATOM     26  O   UNL     1      -1.738   5.816  -2.928  0.00  0.00    -0.395 OA
ATOM     27  C   UNL     1      -2.686   6.877  -3.032  0.00  0.00    +0.589 C 
ATOM     28  O   UNL     1      -3.068   6.757  -4.389  0.00  0.00    -0.395 OA
ATOM     29  F   UNL     1      -2.000   8.055  -2.785  0.00  0.00    -0.125 F 
ATOM     30  F   UNL     1      -3.744   6.698  -2.167  0.00  0.00    -0.125 F 
ATOM     31  C   UNL     1      -2.199   5.913  -5.072  0.00  0.00    +0.182 A 
ATOM     32  C   UNL     1      -1.952   5.630  -6.407  0.00  0.00    +0.040 A 
ATOM     33  C   UNL     1      -0.656   5.414  -6.856  0.00  0.00    -0.001 A 
ENDBRANCH  20  23
ENDBRANCH   2  20
TORSDOF 5
ENDMDL
MODEL 4
REMARK VINA RESULT:      -9.6      4.293      8.269
REMARK  Name = 
REMARK  5 active torsions:
REMARK  status: ('A' for Active; 'I' for Inactive)
REMARK    1  A    between atoms: C_5  and  N_6
REMARK    2  A    between atoms: C_7  and  C_9
REMARK    3  A    between atoms: C_9  and  C_10
REMARK    4  A    between atoms: C_24  and  C_25
REMARK    5  A    between atoms: C_29  and  C_30
REMARK                            x       y       z     vdW  Elec       q    Type
REMARK                         _______ _______ _______ _____ _____    ______ ____
ROOT
ATOM      1  N   UNL     1       0.337   5.261  -7.920  0.00  0.00    -0.160 NA
ATOM      2  C   UNL     1       1.702   4.913  -8.150  0.00  0.00    +0.250 C 
ATOM      3  O   UNL     1       2.124   3.928  -7.471  0.00  0.00    -0.273 OA
ENDROOT
BRANCH   1   8
ATOM      4  C   UNL     1      -2.045   7.532  -3.516  0.00  0.00    +0.033 C 
ATOM      5  C   UNL     1      -1.457   6.670  -4.587  0.00  0.00    -0.004 A 
ATOM      6  C   UNL     1      -0.162   6.176  -4.474  0.00  0.00    +0.079 A 
ATOM      7  N   UNL     1       0.403   5.527  -5.498  0.00  0.00    -0.229 NA
ATOM      8  C   UNL     1      -0.266   5.178  -6.622  0.00  0.00    +0.154 A 
ATOM      9  C   UNL     1      -1.642   5.363  -6.573  0.00  0.00    +0.036 A 
ATOM     10  C   UNL     1      -2.252   6.136  -5.593  0.00  0.00    +0.000 A 
BRANCH   6  11
ATOM     11  C   UNL     1       0.489   6.182  -3.159  0.00  0.00    +0.018 A 
ATOM     12  C   UNL     1       1.739   6.737  -2.988  0.00  0.00    +0.008 A 
ATOM     13  C   UNL     1       2.601   6.376  -1.974  0.00  0.00    +0.080 A 
ATOM     14  C   UNL     1       2.303   5.199  -1.305  0.00  0.00    +0.007 A 
ATOM     15  C   UNL     1       1.004   4.707  -1.299  0.00  0.00    +0.000 A 
ATOM     16  C   UNL     1       0.090   5.293  -2.167  0.00  0.00    +0.001 A 
BRANCH  13  17
ATOM     17  C   UNL     1       3.651   7.257  -1.466  0.00  0.00    +0.388 C 
ATOM     18  O   UNL     1       4.643   6.784  -0.603  0.00  0.00    -0.241 OA
ATOM     19  O   UNL     1       3.892   8.386  -1.991  0.00  0.00    -0.241 OA
ENDBRANCH  13  17
ENDBRANCH   6  11
ENDBRANCH   1   8
BRANCH   2  20
ATOM     20  C   UNL     1       2.686   5.858  -8.763  0.00  0.00    +0.090 C 
ATOM     21  C   UNL     1       2.052   6.972  -9.644  0.00  0.00    +0.014 C 
ATOM     22  C   UNL     1       2.594   7.305  -8.301  0.00  0.00    +0.014 C 
BRANCH  20  23
ATOM     23  C   UNL     1       3.980   5.343  -9.246  0.00  0.00    -0.011 A 
ATOM     24  C   UNL     1       4.294   5.282 -10.597  0.00  0.00    +0.037 A 
ATOM     25  C   UNL     1       5.598   5.459 -11.044  0.00  0.00    +0.181 A 
ATOM     26  O   UNL     1       6.143   5.747 -12.298  0.00  0.00    -0.395 OA
ATOM     27  C   UNL     1       7.123   6.776 -12.172  0.00  0.00    +0.589 C 
ATOM     28  O   UNL     1       7.505   6.613 -10.820  0.00  0.00    -0.395 OA
ATOM     29  F   UNL     1       6.472   7.979 -12.390  0.00  0.00    -0.125 F 
ATOM     30  F   UNL     1       8.172   6.585 -13.045  0.00  0.00    -0.125 F 
ATOM     31  C   UNL     1       6.613   5.780 -10.153  0.00  0.00    +0.182 A 
ATOM     32  C   UNL     1       6.361   5.474  -8.824  0.00  0.00    +0.040 A 
ATOM     33  C   UNL     1       5.061   5.287  -8.376  0.00  0.00    -0.001 A 
ENDBRANCH  20  23
ENDBRANCH   2  20
TORSDOF 5
ENDMDL
MODEL 5
REMARK VINA RESULT:      -9.6      4.561      8.528
REMARK  Name = 
REMARK  5 active torsions:
REMARK  status: ('A' for Active; 'I' for Inactive)
REMARK    1  A    between atoms: C_5  and  N_6
REMARK    2  A    between atoms: C_7  and  C_9
REMARK    3  A    between atoms: C_9  and  C_10
REMARK    4  A    between atoms: C_24  and  C_25
REMARK    5  A    between atoms: C_29  and  C_30
REMARK                            x       y       z     vdW  Elec       q    Type
REMARK                         _______ _______ _______ _____ _____    ______ ____
ROOT
ATOM      1  N   UNL     1       3.692   5.332  -7.551  0.00  0.00    -0.160 NA
ATOM      2  C   UNL     1       3.131   6.414  -8.293  0.00  0.00    +0.250 C 
ATOM      3  O   UNL     1       2.637   7.345  -7.587  0.00  0.00    -0.273 OA
ENDROOT
BRANCH   1   8
ATOM      4  C   UNL     1      -0.021   5.625  -3.507  0.00  0.00    +0.033 C 
ATOM      5  C   UNL     1       1.068   5.305  -4.482  0.00  0.00    -0.004 A 
ATOM      6  C   UNL     1       2.389   5.637  -4.209  0.00  0.00    +0.079 A 
ATOM      7  N   UNL     1       3.332   5.477  -5.144  0.00  0.00    -0.229 NA
ATOM      8  C   UNL     1       3.111   4.859  -6.328  0.00  0.00    +0.154 A 
ATOM      9  C   UNL     1       1.882   4.220  -6.442  0.00  0.00    +0.036 A 
ATOM     10  C   UNL     1       0.837   4.458  -5.558  0.00  0.00    +0.000 A 
BRANCH   6  11
ATOM     11  C   UNL     1       2.772   5.955  -2.828  0.00  0.00    +0.018 A 
ATOM     12  C   UNL     1       3.029   7.253  -2.443  0.00  0.00    +0.008 A 
ATOM     13  C   UNL     1       3.830   7.586  -1.372  0.00  0.00    +0.080 A 
ATOM     14  C   UNL     1       4.638   6.576  -0.871  0.00  0.00    +0.007 A 
ATOM     15  C   UNL     1       4.303   5.245  -1.080  0.00  0.00    +0.000 A 
ATOM     16  C   UNL     1       3.289   4.972  -1.992  0.00  0.00    +0.001 A 
BRANCH  13  17
ATOM     17  C   UNL     1       3.711   8.850  -0.646  0.00  0.00    +0.388 C 
ATOM     18  O   UNL     1       3.991   8.933   0.721  0.00  0.00    -0.241 OA
ATOM     19  O   UNL     1       3.638   9.964  -1.247  0.00  0.00    -0.241 OA
ENDBRANCH  13  17
ENDBRANCH   6  11
ENDBRANCH   1   8
BRANCH   2  20
ATOM     20  C   UNL     1       2.735   6.291  -9.730  0.00  0.00    +0.090 C 
ATOM     21  C   UNL     1       1.692   5.175 -10.021  0.00  0.00    +0.014 C 
ATOM     22  C   UNL     1       1.279   6.602 -10.045  0.00  0.00    +0.014 C 
BRANCH  20  23
ATOM     23  C   UNL     1       3.751   6.483 -10.780  0.00  0.00    -0.011 A 
ATOM     24  C   UNL     1       5.000   7.025 -10.510  0.00  0.00    +0.037 A 
ATOM     25  C   UNL     1       6.129   6.626 -11.216  0.00  0.00    +0.181 A 
ATOM     26  O   UNL     1       7.498   6.756 -10.974  0.00  0.00    -0.395 OA
ATOM     27  C   UNL     1       8.151   5.511 -11.214  0.00  0.00    +0.589 C 
ATOM     28  O   UNL     1       7.249   4.912 -12.125  0.00  0.00    -0.395 OA
ATOM     29  F   UNL     1       8.194   4.840 -10.004  0.00  0.00    -0.125 F 
ATOM     30  F   UNL     1       9.406   5.693 -11.755  0.00  0.00    -0.125 F 
ATOM     31  C   UNL     1       6.049   5.613 -12.162  0.00  0.00    +0.182 A 
ATOM     32  C   UNL     1       4.780   5.362 -12.663  0.00  0.00    +0.040 A 
ATOM     33  C   UNL     1       3.651   5.768 -11.967  0.00  0.00    -0.001 A 
ENDBRANCH  20  23
ENDBRANCH   2  20
TORSDOF 5
ENDMDL
MODEL 6
REMARK VINA RESULT:      -9.3      4.539      6.753
REMARK  Name = 
REMARK  5 active torsions:
REMARK  status: ('A' for Active; 'I' for Inactive)
REMARK    1  A    between atoms: C_5  and  N_6
REMARK    2  A    between atoms: C_7  and  C_9
REMARK    3  A    between atoms: C_9  and  C_10
REMARK    4  A    between atoms: C_24  and  C_25
REMARK    5  A    between atoms: C_29  and  C_30
REMARK                            x       y       z     vdW  Elec       q    Type
REMARK                         _______ _______ _______ _____ _____    ______ ____
ROOT
ATOM      1  N   UNL     1       0.533   5.367  -8.777  0.00  0.00    -0.160 NA
ATOM      2  C   UNL     1       0.439   6.106  -7.561  0.00  0.00    +0.250 C 
ATOM      3  O   UNL     1       1.352   6.970  -7.389  0.00  0.00    -0.273 OA
ENDROOT
BRANCH   1   8
ATOM      4  C   UNL     1       6.029   5.220  -8.748  0.00  0.00    +0.033 C 
ATOM      5  C   UNL     1       4.557   5.084  -8.975  0.00  0.00    -0.004 A 
ATOM      6  C   UNL     1       3.908   5.856  -9.931  0.00  0.00    +0.079 A 
ATOM      7  N   UNL     1       2.575   5.830 -10.027  0.00  0.00    -0.229 NA
ATOM      8  C   UNL     1       1.793   4.968  -9.335  0.00  0.00    +0.154 A 
ATOM      9  C   UNL     1       2.475   3.968  -8.653  0.00  0.00    +0.036 A 
ATOM     10  C   UNL     1       3.845   4.025  -8.426  0.00  0.00    +0.000 A 
BRANCH   6  11
ATOM     11  C   UNL     1       4.706   6.524 -10.966  0.00  0.00    +0.018 A 
ATOM     12  C   UNL     1       5.370   5.798 -11.931  0.00  0.00    +0.008 A 
ATOM     13  C   UNL     1       6.480   6.261 -12.605  0.00  0.00    +0.080 A 
ATOM     14  C   UNL     1       7.112   7.367 -12.059  0.00  0.00    +0.007 A 
ATOM     15  C   UNL     1       6.414   8.232 -11.227  0.00  0.00    +0.000 A 
ATOM     16  C   UNL     1       5.162   7.824 -10.780  0.00  0.00    +0.001 A 
BRANCH  13  17
ATOM     17  C   UNL     1       6.873   5.776 -13.928  0.00  0.00    +0.388 C 
ATOM     18  O   UNL     1       6.838   6.611 -15.048  0.00  0.00    -0.241 OA
ATOM     19  O   UNL     1       7.528   4.701 -14.081  0.00  0.00    -0.241 OA
ENDBRANCH  13  17
ENDBRANCH   6  11
ENDBRANCH   1   8
BRANCH   2  20
ATOM     20  C   UNL     1      -0.356   5.634  -6.386  0.00  0.00    +0.090 C 
ATOM     21  C   UNL     1      -1.711   6.370  -6.183  0.00  0.00    +0.014 C 
ATOM     22  C   UNL     1      -1.692   4.980  -6.708  0.00  0.00    +0.014 C 
BRANCH  20  23
ATOM     23  C   UNL     1       0.341   5.259  -5.143  0.00  0.00    -0.011 A 
ATOM     24  C   UNL     1       1.724   5.158  -5.072  0.00  0.00    +0.037 A 
ATOM     25  C   UNL     1       2.413   5.473  -3.907  0.00  0.00    +0.181 A 
ATOM     26  O   UNL     1       3.756   5.753  -3.641  0.00  0.00    -0.395 OA
ATOM     27  C   UNL     1       3.852   6.904  -2.805  0.00  0.00    +0.589 C 
ATOM     28  O   UNL     1       2.590   6.873  -2.166  0.00  0.00    -0.395 OA
ATOM     29  F   UNL     1       3.987   7.999  -3.642  0.00  0.00    -0.125 F 
ATOM     30  F   UNL     1       4.898   6.797  -1.914  0.00  0.00    -0.125 F 
ATOM     31  C   UNL     1       1.739   5.974  -2.801  0.00  0.00    +0.182 A 
ATOM     32  C   UNL     1       0.377   5.718  -2.765  0.00  0.00    +0.040 A 
ATOM     33  C   UNL     1      -0.313   5.394  -3.924  0.00  0.00    -0.001 A 
ENDBRANCH  20  23
ENDBRANCH   2  20
TORSDOF 5
ENDMDL
MODEL 7
REMARK VINA RESULT:      -9.0      3.781      5.814
REMARK  Name = 
REMARK  5 active torsions:
REMARK  status: ('A' for Active; 'I' for Inactive)
REMARK    1  A    between atoms: C_5  and  N_6
REMARK    2  A    between atoms: C_7  and  C_9
REMARK    3  A    between atoms: C_9  and  C_10
REMARK    4  A    between atoms: C_24  and  C_25
REMARK    5  A    between atoms: C_29  and  C_30
REMARK                            x       y       z     vdW  Elec       q    Type
REMARK                         _______ _______ _______ _____ _____    ______ ____
ROOT
ATOM      1  N   UNL     1       4.064   5.445  -6.279  0.00  0.00    -0.160 NA
ATOM      2  C   UNL     1       3.050   4.954  -5.405  0.00  0.00    +0.250 C 
ATOM      3  O   UNL     1       2.622   3.792  -5.682  0.00  0.00    -0.273 OA
ENDROOT
BRANCH   1   8
ATOM      4  C   UNL     1       4.540   7.004 -11.531  0.00  0.00    +0.033 C 
ATOM      5  C   UNL     1       4.393   6.319 -10.209  0.00  0.00    -0.004 A 
ATOM      6  C   UNL     1       3.138   5.979  -9.717  0.00  0.00    +0.079 A 
ATOM      7  N   UNL     1       3.007   5.499  -8.476  0.00  0.00    -0.229 NA
ATOM      8  C   UNL     1       4.058   5.172  -7.688  0.00  0.00    +0.154 A 
ATOM      9  C   UNL     1       5.297   5.182  -8.318  0.00  0.00    +0.036 A 
ATOM     10  C   UNL     1       5.495   5.784  -9.555  0.00  0.00    +0.000 A 
BRANCH   6  11
ATOM     11  C   UNL     1       1.998   5.947 -10.640  0.00  0.00    +0.018 A 
ATOM     12  C   UNL     1       2.172   5.650 -11.975  0.00  0.00    +0.008 A 
ATOM     13  C   UNL     1       1.304   6.056 -12.966  0.00  0.00    +0.080 A 
ATOM     14  C   UNL     1       0.403   7.052 -12.624  0.00  0.00    +0.007 A 
ATOM     15  C   UNL     1       0.058   7.256 -11.294  0.00  0.00    +0.000 A 
ATOM     16  C   UNL     1       0.813   6.603 -10.326  0.00  0.00    +0.001 A 
BRANCH  13  17
ATOM     17  C   UNL     1       1.168   5.358 -14.245  0.00  0.00    +0.388 C 
ATOM     18  O   UNL     1       0.896   6.053 -15.427  0.00  0.00    -0.241 OA
ATOM     19  O   UNL     1       1.568   4.166 -14.404  0.00  0.00    -0.241 OA
ENDBRANCH  13  17
ENDBRANCH   6  11
ENDBRANCH   1   8
BRANCH   2  20
ATOM     20  C   UNL     1       2.229   5.850  -4.532  0.00  0.00    +0.090 C 
ATOM     21  C   UNL     1       2.655   5.863  -3.036  0.00  0.00    +0.014 C 
ATOM     22  C   UNL     1       2.968   7.025  -3.907  0.00  0.00    +0.014 C 
BRANCH  20  23
ATOM     23  C   UNL     1       0.779   5.961  -4.768  0.00  0.00    -0.011 A 
ATOM     24  C   UNL     1      -0.152   5.296  -3.982  0.00  0.00    +0.037 A 
ATOM     25  C   UNL     1      -1.401   5.845  -3.721  0.00  0.00    +0.181 A 
ATOM     26  O   UNL     1      -2.380   5.570  -2.762  0.00  0.00    -0.395 OA
ATOM     27  C   UNL     1      -2.846   6.789  -2.187  0.00  0.00    +0.589 C 
ATOM     28  O   UNL     1      -2.555   7.701  -3.228  0.00  0.00    -0.395 OA
ATOM     29  F   UNL     1      -2.077   7.021  -1.059  0.00  0.00    -0.125 F 
ATOM     30  F   UNL     1      -4.193   6.729  -1.897  0.00  0.00    -0.125 F 
ATOM     31  C   UNL     1      -1.724   7.116  -4.177  0.00  0.00    +0.182 A 
ATOM     32  C   UNL     1      -0.957   7.584  -5.233  0.00  0.00    +0.040 A 
ATOM     33  C   UNL     1       0.287   7.032  -5.504  0.00  0.00    -0.001 A 
ENDBRANCH  20  23
ENDBRANCH   2  20
TORSDOF 5
ENDMDL
MODEL 8
REMARK VINA RESULT:      -8.9      4.568      8.667
REMARK  Name = 
REMARK  5 active torsions:
REMARK  status: ('A' for Active; 'I' for Inactive)
REMARK    1  A    between atoms: C_5  and  N_6
REMARK    2  A    between atoms: C_7  and  C_9
REMARK    3  A    between atoms: C_9  and  C_10
REMARK    4  A    between atoms: C_24  and  C_25
REMARK    5  A    between atoms: C_29  and  C_30
REMARK                            x       y       z     vdW  Elec       q    Type
REMARK                         _______ _______ _______ _____ _____    ______ ____
ROOT
ATOM      1  N   UNL     1       3.677   6.769  -7.313  0.00  0.00    -0.160 NA
ATOM      2  C   UNL     1       3.214   7.109  -8.619  0.00  0.00    +0.250 C 
ATOM      3  O   UNL     1       2.529   8.174  -8.682  0.00  0.00    -0.273 OA
ENDROOT
BRANCH   1   8
ATOM      4  C   UNL     1       0.988   5.006  -2.853  0.00  0.00    +0.033 C 
ATOM      5  C   UNL     1       1.660   5.743  -3.968  0.00  0.00    -0.004 A 
ATOM      6  C   UNL     1       0.930   6.214  -5.053  0.00  0.00    +0.079 A 
ATOM      7  N   UNL     1       1.558   6.744  -6.109  0.00  0.00    -0.229 NA
ATOM      8  C   UNL     1       2.887   6.996  -6.138  0.00  0.00    +0.154 A 
ATOM      9  C   UNL     1       3.544   6.851  -4.922  0.00  0.00    +0.036 A 
ATOM     10  C   UNL     1       2.967   6.194  -3.841  0.00  0.00    +0.000 A 
BRANCH   6  11
ATOM     11  C   UNL     1      -0.529   6.323  -4.936  0.00  0.00    +0.018 A 
ATOM     12  C   UNL     1      -1.133   6.481  -3.707  0.00  0.00    +0.008 A 
ATOM     13  C   UNL     1      -2.436   6.114  -3.446  0.00  0.00    +0.080 A 
ATOM     14  C   UNL     1      -3.038   5.282  -4.376  0.00  0.00    +0.007 A 
ATOM     15  C   UNL     1      -2.571   5.240  -5.683  0.00  0.00    +0.000 A 
ATOM     16  C   UNL     1      -1.358   5.863  -5.953  0.00  0.00    +0.001 A 
BRANCH  13  17
ATOM     17  C   UNL     1      -3.236   6.714  -2.378  0.00  0.00    +0.388 C 
ATOM     18  O   UNL     1      -4.633   6.695  -2.419  0.00  0.00    -0.241 OA
ATOM     19  O   UNL     1      -2.737   7.009  -1.251  0.00  0.00    -0.241 OA
ENDBRANCH  13  17
ENDBRANCH   6  11
ENDBRANCH   1   8
BRANCH   2  20
ATOM     20  C   UNL     1       3.130   6.114  -9.733  0.00  0.00    +0.090 C 
ATOM     21  C   UNL     1       2.952   4.639  -9.272  0.00  0.00    +0.014 C 
ATOM     22  C   UNL     1       1.806   5.377  -9.865  0.00  0.00    +0.014 C 
BRANCH  20  23
ATOM     23  C   UNL     1       3.971   6.295 -10.930  0.00  0.00    -0.011 A 
ATOM     24  C   UNL     1       5.200   6.939 -10.881  0.00  0.00    +0.037 A 
ATOM     25  C   UNL     1       6.246   6.565 -11.716  0.00  0.00    +0.181 A 
ATOM     26  O   UNL     1       7.621   6.806 -11.685  0.00  0.00    -0.395 OA
ATOM     27  C   UNL     1       8.328   5.593 -11.936  0.00  0.00    +0.589 C 
ATOM     28  O   UNL     1       7.357   4.867 -12.664  0.00  0.00    -0.395 OA
ATOM     29  F   UNL     1       8.593   5.020 -10.703  0.00  0.00    -0.125 F 
ATOM     30  F   UNL     1       9.477   5.818 -12.664  0.00  0.00    -0.125 F 
ATOM     31  C   UNL     1       6.113   5.480 -12.572  0.00  0.00    +0.182 A 
ATOM     32  C   UNL     1       4.810   5.107 -12.866  0.00  0.00    +0.040 A 
ATOM     33  C   UNL     1       3.761   5.487 -12.040  0.00  0.00    -0.001 A 
ENDBRANCH  20  23
ENDBRANCH   2  20
TORSDOF 5
ENDMDL
MODEL 9
REMARK VINA RESULT:      -8.8      3.109      5.238
REMARK  Name = 
REMARK  5 active torsions:
REMARK  status: ('A' for Active; 'I' for Inactive)
REMARK    1  A    between atoms: C_5  and  N_6
REMARK    2  A    between atoms: C_7  and  C_9
REMARK    3  A    between atoms: C_9  and  C_10
REMARK    4  A    between atoms: C_24  and  C_25
REMARK    5  A    between atoms: C_29  and  C_30
REMARK                            x       y       z     vdW  Elec       q    Type
REMARK                         _______ _______ _______ _____ _____    ______ ____
ROOT
ATOM      1  N   UNL     1      -1.198   5.676  -5.719  0.00  0.00    -0.160 NA
ATOM      2  C   UNL     1      -1.016   6.379  -4.491  0.00  0.00    +0.250 C 
ATOM      3  O   UNL     1      -0.003   7.142  -4.456  0.00  0.00    -0.273 OA
ENDROOT
BRANCH   1   8
ATOM      4  C   UNL     1       4.140   5.538  -7.028  0.00  0.00    +0.033 C 
ATOM      5  C   UNL     1       2.666   5.360  -6.851  0.00  0.00    -0.004 A 
ATOM      6  C   UNL     1       1.767   5.926  -7.747  0.00  0.00    +0.079 A 
ATOM      7  N   UNL     1       0.453   5.881  -7.502  0.00  0.00    -0.229 NA
ATOM      8  C   UNL     1      -0.094   5.174  -6.484  0.00  0.00    +0.154 A 
ATOM      9  C   UNL     1       0.782   4.330  -5.813  0.00  0.00    +0.036 A 
ATOM     10  C   UNL     1       2.162   4.431  -5.950  0.00  0.00    +0.000 A 
BRANCH   6  11
ATOM     11  C   UNL     1       2.254   6.376  -9.055  0.00  0.00    +0.018 A 
ATOM     12  C   UNL     1       1.845   5.757 -10.217  0.00  0.00    +0.008 A 
ATOM     13  C   UNL     1       2.576   5.769 -11.386  0.00  0.00    +0.080 A 
ATOM     14  C   UNL     1       3.902   6.158 -11.277  0.00  0.00    +0.007 A 
ATOM     15  C   UNL     1       4.313   6.947 -10.211  0.00  0.00    +0.000 A 
ATOM     16  C   UNL     1       3.422   7.123  -9.158  0.00  0.00    +0.001 A 
BRANCH  13  17
ATOM     17  C   UNL     1       1.974   5.594 -12.707  0.00  0.00    +0.388 C 
ATOM     18  O   UNL     1       2.648   5.979 -13.870  0.00  0.00    -0.241 OA
ATOM     19  O   UNL     1       0.973   4.839 -12.894  0.00  0.00    -0.241 OA
ENDBRANCH  13  17
ENDBRANCH   6  11
ENDBRANCH   1   8
BRANCH   2  20
ATOM     20  C   UNL     1      -1.654   5.947  -3.208  0.00  0.00    +0.090 C 
ATOM     21  C   UNL     1      -3.055   6.567  -2.941  0.00  0.00    +0.014 C 
ATOM     22  C   UNL     1      -2.938   5.142  -3.344  0.00  0.00    +0.014 C 
BRANCH  20  23
ATOM     23  C   UNL     1      -0.816   5.761  -2.010  0.00  0.00    -0.011 A 
ATOM     24  C   UNL     1       0.267   4.893  -1.992  0.00  0.00    +0.037 A 
ATOM     25  C   UNL     1       1.396   5.162  -1.227  0.00  0.00    +0.181 A 
ATOM     26  O   UNL     1       2.700   4.660  -1.247  0.00  0.00    -0.395 OA
ATOM     27  C   UNL     1       3.631   5.738  -1.167  0.00  0.00    +0.589 C 
ATOM     28  O   UNL     1       2.843   6.722  -0.526  0.00  0.00    -0.395 OA
ATOM     29  F   UNL     1       3.951   6.090  -2.467  0.00  0.00    -0.125 F 
ATOM     30  F   UNL     1       4.745   5.390  -0.432  0.00  0.00    -0.125 F 
ATOM     31  C   UNL     1       1.503   6.351  -0.520  0.00  0.00    +0.182 A 
ATOM     32  C   UNL     1       0.306   7.001  -0.258  0.00  0.00    +0.040 A 
ATOM     33  C   UNL     1      -0.827   6.727  -1.012  0.00  0.00    -0.001 A 
ENDBRANCH  20  23
ENDBRANCH   2  20
TORSDOF 5
ENDMDL
