MODEL 1
REMARK VINA RESULT:      -4.0      0.000      0.000
REMARK  Name = 
REMARK  0 active torsions:
REMARK  status: ('A' for Active; 'I' for Inactive)
REMARK                            x       y       z     vdW  Elec       q    Type
REMARK                         _______ _______ _______ _____ _____    ______ ____
ROOT
ATOM      1  C   UNL     1       1.246   6.870  -6.490  0.00  0.00    +0.221 C 
ATOM      2  N   UNL     1       1.232   5.928  -5.403  0.00  0.00    -0.222 N 
ATOM      3  C   UNL     1       0.589   6.215  -4.153  0.00  0.00    +0.474 C 
ATOM      4  N   UNL     1      -0.719   5.697  -3.962  0.00  0.00    +0.011 NA
ATOM      5  C   UNL     1      -1.205   5.216  -2.717  0.00  0.00    +0.544 C 
ATOM      6  N   UNL     1      -2.588   5.053  -2.430  0.00  0.00    +0.136 NA
ATOM      7  N   UNL     1      -0.341   4.957  -1.779  0.00  0.00    +0.136 NA
ATOM      8  N   UNL     1       1.361   6.283  -3.126  0.00  0.00    +0.129 NA
ATOM      9  C   UNL     1       2.067   4.728  -5.428  0.00  0.00    +0.221 C 
ENDROOT
TORSDOF 0
ENDMDL
MODEL 2
REMARK VINA RESULT:      -3.9      7.084      9.755
REMARK  Name = 
REMARK  0 active torsions:
REMARK  status: ('A' for Active; 'I' for Inactive)
REMARK                            x       y       z     vdW  Elec       q    Type
REMARK                         _______ _______ _______ _____ _____    ______ ____
ROOT
ATOM      1  C   UNL     1       3.989   5.819  -8.422  0.00  0.00    +0.221 C 
ATOM      2  N   UNL     1       4.089   6.104  -9.829  0.00  0.00    -0.222 N 
ATOM      3  C   UNL     1       5.331   6.469 -10.447  0.00  0.00    +0.474 C 
ATOM      4  N   UNL     1       6.052   5.442 -11.111  0.00  0.00    +0.011 NA
ATOM      5  C   UNL     1       6.792   5.642 -12.307  0.00  0.00    +0.544 C 
ATOM      6  N   UNL     1       7.797   4.744 -12.762  0.00  0.00    +0.136 NA
ATOM      7  N   UNL     1       6.569   6.725 -12.994  0.00  0.00    +0.136 NA
ATOM      8  N   UNL     1       5.386   7.654 -10.943  0.00  0.00    +0.129 NA
ATOM      9  C   UNL     1       2.895   6.265 -10.657  0.00  0.00    +0.221 C 
ENDROOT
TORSDOF 0
ENDMDL
MODEL 3
REMARK VINA RESULT:      -3.9      3.297      4.797
REMARK  Name = 
REMARK  0 active torsions:
REMARK  status: ('A' for Active; 'I' for Inactive)
REMARK                            x       y       z     vdW  Elec       q    Type
REMARK                         _______ _______ _______ _____ _____    ______ ____
ROOT
ATOM      1  C   UNL     1       5.331   7.241  -3.220  0.00  0.00    +0.221 C 
ATOM      2  N   UNL     1       4.476   6.445  -4.060  0.00  0.00    -0.222 N 
ATOM      3  C   UNL     1       3.264   6.966  -4.624  0.00  0.00    +0.474 C 
ATOM      4  N   UNL     1       3.318   7.427  -5.966  0.00  0.00    +0.011 NA
ATOM      5  C   UNL     1       2.259   7.272  -6.899  0.00  0.00    +0.544 C 
ATOM      6  N   UNL     1       2.152   8.038  -8.092  0.00  0.00    +0.136 NA
ATOM      7  N   UNL     1       1.316   6.419  -6.622  0.00  0.00    +0.136 NA
ATOM      8  N   UNL     1       2.174   6.409  -4.228  0.00  0.00    +0.129 NA
ATOM      9  C   UNL     1       4.672   5.003  -4.193  0.00  0.00    +0.221 C 
ENDROOT
TORSDOF 0
ENDMDL
MODEL 4
REMARK VINA RESULT:      -3.9      1.241      1.848
REMARK  Name = 
REMARK  0 active torsions:
REMARK  status: ('A' for Active; 'I' for Inactive)
REMARK                            x       y       z     vdW  Elec       q    Type
REMARK                         _______ _______ _______ _____ _____    ______ ____
ROOT
ATOM      1  C   UNL     1       2.301   4.912  -5.375  0.00  0.00    +0.221 C 
ATOM      2  N   UNL     1       1.637   5.842  -4.500  0.00  0.00    -0.222 N 
ATOM      3  C   UNL     1       0.211   6.001  -4.496  0.00  0.00    +0.474 C 
ATOM      4  N   UNL     1      -0.517   5.307  -3.495  0.00  0.00    +0.011 NA
ATOM      5  C   UNL     1      -1.672   5.828  -2.852  0.00  0.00    +0.544 C 
ATOM      6  N   UNL     1      -2.602   5.019  -2.144  0.00  0.00    +0.136 NA
ATOM      7  N   UNL     1      -1.910   7.103  -2.957  0.00  0.00    +0.136 NA
ATOM      8  N   UNL     1      -0.228   7.153  -4.864  0.00  0.00    +0.129 NA
ATOM      9  C   UNL     1       2.390   6.837  -3.738  0.00  0.00    +0.221 C 
ENDROOT
TORSDOF 0
ENDMDL
MODEL 5
REMARK VINA RESULT:      -3.8      2.299      3.282
REMARK  Name = 
REMARK  0 active torsions:
REMARK  status: ('A' for Active; 'I' for Inactive)
REMARK                            x       y       z     vdW  Elec       q    Type
REMARK                         _______ _______ _______ _____ _____    ______ ____
ROOT
ATOM      1  C   UNL     1      -2.086   5.683  -6.282  0.00  0.00    +0.221 C 
ATOM      2  N   UNL     1      -2.049   6.148  -4.921  0.00  0.00    -0.222 N 
ATOM      3  C   UNL     1      -1.649   5.299  -3.835  0.00  0.00    +0.474 C 
ATOM      4  N   UNL     1      -0.308   5.409  -3.385  0.00  0.00    +0.011 NA
ATOM      5  C   UNL     1       0.082   5.294  -2.024  0.00  0.00    +0.544 C 
ATOM      6  N   UNL     1       1.417   5.031  -1.614  0.00  0.00    +0.136 NA
ATOM      7  N   UNL     1      -0.842   5.389  -1.111  0.00  0.00    +0.136 NA
ATOM      8  N   UNL     1      -2.555   5.044  -2.958  0.00  0.00    +0.129 NA
ATOM      9  C   UNL     1      -2.636   7.432  -4.542  0.00  0.00    +0.221 C 
ENDROOT
TORSDOF 0
ENDMDL
MODEL 6
REMARK VINA RESULT:      -3.8      9.056     11.134
REMARK  Name = 
REMARK  0 active torsions:
REMARK  status: ('A' for Active; 'I' for Inactive)
REMARK                            x       y       z     vdW  Elec       q    Type
REMARK                         _______ _______ _______ _____ _____    ______ ____
ROOT
ATOM      1  C   UNL     1       5.850   5.470  -9.537  0.00  0.00    +0.221 C 
ATOM      2  N   UNL     1       6.580   5.953 -10.679  0.00  0.00    -0.222 N 
ATOM      3  C   UNL     1       6.393   5.403 -11.991  0.00  0.00    +0.474 C 
ATOM      4  N   UNL     1       5.528   6.103 -12.872  0.00  0.00    +0.011 NA
ATOM      5  C   UNL     1       5.747   6.217 -14.271  0.00  0.00    +0.544 C 
ATOM      6  N   UNL     1       4.728   6.578 -15.193  0.00  0.00    +0.136 NA
ATOM      7  N   UNL     1       6.931   5.932 -14.732  0.00  0.00    +0.136 NA
ATOM      8  N   UNL     1       7.414   4.809 -12.502  0.00  0.00    +0.129 NA
ATOM      9  C   UNL     1       7.712   6.865 -10.527  0.00  0.00    +0.221 C 
ENDROOT
TORSDOF 0
ENDMDL
MODEL 7
REMARK VINA RESULT:      -3.7      7.056      9.619
REMARK  Name = 
REMARK  0 active torsions:
REMARK  status: ('A' for Active; 'I' for Inactive)
REMARK                            x       y       z     vdW  Elec       q    Type
REMARK                         _______ _______ _______ _____ _____    ______ ____
ROOT
ATOM      1  C   UNL     1       1.154   6.603  -9.767  0.00  0.00    +0.221 C 
ATOM      2  N   UNL     1       1.239   5.885 -11.011  0.00  0.00    -0.222 N 
ATOM      3  C   UNL     1       2.122   6.289 -12.066  0.00  0.00    +0.474 C 
ATOM      4  N   UNL     1       3.367   5.614 -12.166  0.00  0.00    +0.011 NA
ATOM      5  C   UNL     1       3.999   5.297 -13.398  0.00  0.00    +0.544 C 
ATOM      6  N   UNL     1       5.378   4.971 -13.506  0.00  0.00    +0.136 NA
ATOM      7  N   UNL     1       3.287   5.355 -14.486  0.00  0.00    +0.136 NA
ATOM      8  N   UNL     1       1.558   6.666 -13.160  0.00  0.00    +0.129 NA
ATOM      9  C   UNL     1       0.266   4.850 -11.357  0.00  0.00    +0.221 C 
ENDROOT
TORSDOF 0
ENDMDL
MODEL 8
REMARK VINA RESULT:      -3.7     10.656     11.257
REMARK  Name = 
REMARK  0 active torsions:
REMARK  status: ('A' for Active; 'I' for Inactive)
REMARK                            x       y       z     vdW  Elec       q    Type
REMARK                         _______ _______ _______ _____ _____    ______ ____
ROOT
ATOM      1  C   UNL     1       7.883   5.108 -12.032  0.00  0.00    +0.221 C 
ATOM      2  N   UNL     1       6.817   5.948 -12.509  0.00  0.00    -0.222 N 
ATOM      3  C   UNL     1       6.034   5.607 -13.662  0.00  0.00    +0.474 C 
ATOM      4  N   UNL     1       4.776   4.990 -13.433  0.00  0.00    +0.011 NA
ATOM      5  C   UNL     1       3.621   5.234 -14.222  0.00  0.00    +0.544 C 
ATOM      6  N   UNL     1       2.493   4.369 -14.243  0.00  0.00    +0.136 NA
ATOM      7  N   UNL     1       3.617   6.279 -14.999  0.00  0.00    +0.136 NA
ATOM      8  N   UNL     1       6.135   6.405 -14.666  0.00  0.00    +0.129 NA
ATOM      9  C   UNL     1       6.627   7.301 -11.988  0.00  0.00    +0.221 C 
ENDROOT
TORSDOF 0
ENDMDL
MODEL 9
REMARK VINA RESULT:      -3.7      7.181      9.438
REMARK  Name = 
REMARK  0 active torsions:
REMARK  status: ('A' for Active; 'I' for Inactive)
REMARK                            x       y       z     vdW  Elec       q    Type
REMARK                         _______ _______ _______ _____ _____    ______ ____
ROOT
ATOM      1  C   UNL     1       0.645   6.046  -9.618  0.00  0.00    +0.221 C 
ATOM      2  N   UNL     1       0.365   6.366 -10.992  0.00  0.00    -0.222 N 
ATOM      3  C   UNL     1       1.114   5.798 -12.076  0.00  0.00    +0.474 C 
ATOM      4  N   UNL     1       0.548   4.679 -12.741  0.00  0.00    +0.011 NA
ATOM      5  C   UNL     1       0.663   4.448 -14.137  0.00  0.00    +0.544 C 
ATOM      6  N   UNL     1       0.435   3.180 -14.739  0.00  0.00    +0.136 NA
ATOM      7  N   UNL     1       1.040   5.437 -14.895  0.00  0.00    +0.136 NA
ATOM      8  N   UNL     1       1.801   6.627 -12.780  0.00  0.00    +0.129 NA
ATOM      9  C   UNL     1      -0.538   7.460 -11.348  0.00  0.00    +0.221 C 
ENDROOT
TORSDOF 0
ENDMDL
