MODEL 1
REMARK VINA RESULT:      -5.4      0.000      0.000
REMARK  Name = 
REMARK  1 active torsions:
REMARK  status: ('A' for Active; 'I' for Inactive)
REMARK    1  A    between atoms: C_4  and  C_5
REMARK                            x       y       z     vdW  Elec       q    Type
REMARK                         _______ _______ _______ _____ _____    ______ ____
ROOT
ATOM      1  C   UNL     1      -1.586   6.520  -4.716  0.00  0.00    -0.021 A 
ATOM      2  C   UNL     1      -0.283   6.871  -5.075  0.00  0.00    -0.004 A 
ATOM      3  C   UNL     1       0.213   6.236  -6.204  0.00  0.00    -0.000 A 
ATOM      4  C   UNL     1      -0.615   5.512  -7.052  0.00  0.00    -0.000 A 
ATOM      5  C   UNL     1      -1.918   5.336  -6.661  0.00  0.00    -0.000 A 
ATOM      6  C   UNL     1      -2.411   6.256  -5.741  0.00  0.00    -0.004 A 
ENDROOT
BRANCH   1   9
ATOM      7  N   UNL     1      -1.854   7.660  -1.099  0.00  0.00    -0.133 NA
ATOM      8  C   UNL     1      -1.510   6.560  -2.240  0.00  0.00    +0.096 C 
ATOM      9  C   UNL     1      -2.072   7.582  -3.557  0.00  0.00    +0.041 C 
ATOM     10  C   UNL     1      -3.182   6.475  -2.763  0.00  0.00    +0.025 C 
ENDBRANCH   1   9
TORSDOF 1
ENDMDL
MODEL 2
REMARK VINA RESULT:      -5.3      7.027      8.733
REMARK  Name = 
REMARK  1 active torsions:
REMARK  status: ('A' for Active; 'I' for Inactive)
REMARK    1  A    between atoms: C_4  and  C_5
REMARK                            x       y       z     vdW  Elec       q    Type
REMARK                         _______ _______ _______ _____ _____    ______ ____
ROOT
ATOM      1  C   UNL     1       5.079   6.085  -9.823  0.00  0.00    -0.021 A 
ATOM      2  C   UNL     1       6.255   5.741  -9.152  0.00  0.00    -0.004 A 
ATOM      3  C   UNL     1       7.432   6.048  -9.821  0.00  0.00    -0.000 A 
ATOM      4  C   UNL     1       7.435   6.867 -10.943  0.00  0.00    -0.000 A 
ATOM      5  C   UNL     1       6.219   7.253 -11.445  0.00  0.00    -0.000 A 
ATOM      6  C   UNL     1       5.147   7.204 -10.560  0.00  0.00    -0.004 A 
ENDROOT
BRANCH   1   9
ATOM      7  N   UNL     1       2.563   3.976  -7.906  0.00  0.00    -0.133 NA
ATOM      8  C   UNL     1       3.683   4.185  -9.060  0.00  0.00    +0.096 C 
ATOM      9  C   UNL     1       3.842   5.911  -8.753  0.00  0.00    +0.041 C 
ATOM     10  C   UNL     1       2.675   5.327  -9.931  0.00  0.00    +0.025 C 
ENDBRANCH   1   9
TORSDOF 1
ENDMDL
MODEL 3
REMARK VINA RESULT:      -5.2      6.773      8.634
REMARK  Name = 
REMARK  1 active torsions:
REMARK  status: ('A' for Active; 'I' for Inactive)
REMARK    1  A    between atoms: C_4  and  C_5
REMARK                            x       y       z     vdW  Elec       q    Type
REMARK                         _______ _______ _______ _____ _____    ______ ____
ROOT
ATOM      1  C   UNL     1       5.084   6.409  -9.779  0.00  0.00    -0.021 A 
ATOM      2  C   UNL     1       5.188   7.290 -10.857  0.00  0.00    -0.004 A 
ATOM      3  C   UNL     1       6.477   7.700 -11.167  0.00  0.00    -0.000 A 
ATOM      4  C   UNL     1       7.588   7.077 -10.615  0.00  0.00    -0.000 A 
ATOM      5  C   UNL     1       7.365   6.128  -9.650  0.00  0.00    -0.000 A 
ATOM      6  C   UNL     1       6.102   5.544  -9.646  0.00  0.00    -0.004 A 
ENDROOT
BRANCH   1   9
ATOM      7  N   UNL     1       1.415   6.631  -8.810  0.00  0.00    -0.133 NA
ATOM      8  C   UNL     1       2.962   7.108  -8.708  0.00  0.00    +0.096 C 
ATOM      9  C   UNL     1       3.544   5.832  -9.771  0.00  0.00    +0.041 C 
ATOM     10  C   UNL     1       3.466   5.568  -8.036  0.00  0.00    +0.025 C 
ENDBRANCH   1   9
TORSDOF 1
ENDMDL
MODEL 4
REMARK VINA RESULT:      -5.1      8.591     10.717
REMARK  Name = 
REMARK  1 active torsions:
REMARK  status: ('A' for Active; 'I' for Inactive)
REMARK    1  A    between atoms: C_4  and  C_5
REMARK                            x       y       z     vdW  Elec       q    Type
REMARK                         _______ _______ _______ _____ _____    ______ ____
ROOT
ATOM      1  C   UNL     1       6.016   6.055 -10.565  0.00  0.00    -0.021 A 
ATOM      2  C   UNL     1       4.846   6.818 -10.549  0.00  0.00    -0.004 A 
ATOM      3  C   UNL     1       3.975   6.547  -9.504  0.00  0.00    -0.000 A 
ATOM      4  C   UNL     1       4.362   5.770  -8.421  0.00  0.00    -0.000 A 
ATOM      5  C   UNL     1       5.593   5.168  -8.484  0.00  0.00    -0.000 A 
ATOM      6  C   UNL     1       6.511   5.742  -9.358  0.00  0.00    -0.004 A 
ENDROOT
BRANCH   1   9
ATOM      7  N   UNL     1       7.378   6.364 -14.101  0.00  0.00    -0.133 NA
ATOM      8  C   UNL     1       6.503   5.620 -12.955  0.00  0.00    +0.096 C 
ATOM      9  C   UNL     1       7.017   6.725 -11.685  0.00  0.00    +0.041 C 
ATOM     10  C   UNL     1       7.931   5.258 -12.001  0.00  0.00    +0.025 C 
ENDBRANCH   1   9
TORSDOF 1
ENDMDL
MODEL 5
REMARK VINA RESULT:      -5.1      2.941      4.483
REMARK  Name = 
REMARK  1 active torsions:
REMARK  status: ('A' for Active; 'I' for Inactive)
REMARK    1  A    between atoms: C_4  and  C_5
REMARK                            x       y       z     vdW  Elec       q    Type
REMARK                         _______ _______ _______ _____ _____    ______ ____
ROOT
ATOM      1  C   UNL     1      -0.253   6.092  -5.868  0.00  0.00    -0.021 A 
ATOM      2  C   UNL     1      -1.394   5.682  -6.560  0.00  0.00    -0.004 A 
ATOM      3  C   UNL     1      -2.600   6.118  -6.029  0.00  0.00    -0.000 A 
ATOM      4  C   UNL     1      -2.647   7.097  -5.047  0.00  0.00    -0.000 A 
ATOM      5  C   UNL     1      -1.453   7.524  -4.523  0.00  0.00    -0.000 A 
ATOM      6  C   UNL     1      -0.328   7.312  -5.314  0.00  0.00    -0.004 A 
ENDROOT
BRANCH   1   9
ATOM      7  N   UNL     1       2.441   3.709  -7.100  0.00  0.00    -0.133 NA
ATOM      8  C   UNL     1       1.255   4.137  -6.080  0.00  0.00    +0.096 C 
ATOM      9  C   UNL     1       1.045   5.725  -6.810  0.00  0.00    +0.041 C 
ATOM     10  C   UNL     1       2.170   5.507  -5.478  0.00  0.00    +0.025 C 
ENDBRANCH   1   9
TORSDOF 1
ENDMDL
MODEL 6
REMARK VINA RESULT:      -5.0      8.601     10.417
REMARK  Name = 
REMARK  1 active torsions:
REMARK  status: ('A' for Active; 'I' for Inactive)
REMARK    1  A    between atoms: C_4  and  C_5
REMARK                            x       y       z     vdW  Elec       q    Type
REMARK                         _______ _______ _______ _____ _____    ______ ____
ROOT
ATOM      1  C   UNL     1       6.248   6.513 -11.546  0.00  0.00    -0.021 A 
ATOM      2  C   UNL     1       7.355   6.368 -10.706  0.00  0.00    -0.004 A 
ATOM      3  C   UNL     1       8.510   5.907 -11.321  0.00  0.00    -0.000 A 
ATOM      4  C   UNL     1       8.622   5.850 -12.703  0.00  0.00    -0.000 A 
ATOM      5  C   UNL     1       7.501   6.139 -13.439  0.00  0.00    -0.000 A 
ATOM      6  C   UNL     1       6.528   6.900 -12.799  0.00  0.00    -0.004 A 
ENDROOT
BRANCH   1   9
ATOM      7  N   UNL     1       3.535   6.717  -8.891  0.00  0.00    -0.133 NA
ATOM      8  C   UNL     1       4.568   5.894  -9.833  0.00  0.00    +0.096 C 
ATOM      9  C   UNL     1       5.100   7.331 -10.698  0.00  0.00    +0.041 C 
ATOM     10  C   UNL     1       3.740   6.394 -11.297  0.00  0.00    +0.025 C 
ENDBRANCH   1   9
TORSDOF 1
ENDMDL
MODEL 7
REMARK VINA RESULT:      -5.0      3.159      4.823
REMARK  Name = 
REMARK  1 active torsions:
REMARK  status: ('A' for Active; 'I' for Inactive)
REMARK    1  A    between atoms: C_4  and  C_5
REMARK                            x       y       z     vdW  Elec       q    Type
REMARK                         _______ _______ _______ _____ _____    ______ ____
ROOT
ATOM      1  C   UNL     1      -0.132   6.040  -6.714  0.00  0.00    -0.021 A 
ATOM      2  C   UNL     1       0.023   6.747  -5.520  0.00  0.00    -0.004 A 
ATOM      3  C   UNL     1      -1.158   7.088  -4.875  0.00  0.00    -0.000 A 
ATOM      4  C   UNL     1      -2.375   6.540  -5.254  0.00  0.00    -0.000 A 
ATOM      5  C   UNL     1      -2.390   5.750  -6.376  0.00  0.00    -0.000 A 
ATOM      6  C   UNL     1      -1.171   5.191  -6.746  0.00  0.00    -0.004 A 
ENDROOT
BRANCH   1   9
ATOM      7  N   UNL     1       3.270   6.487  -8.351  0.00  0.00    -0.133 NA
ATOM      8  C   UNL     1       1.750   6.958  -8.040  0.00  0.00    +0.096 C 
ATOM      9  C   UNL     1       1.357   5.492  -7.149  0.00  0.00    +0.041 C 
ATOM     10  C   UNL     1       1.074   5.575  -8.881  0.00  0.00    +0.025 C 
ENDBRANCH   1   9
TORSDOF 1
ENDMDL
MODEL 8
REMARK VINA RESULT:      -4.9      7.682      9.711
REMARK  Name = 
REMARK  1 active torsions:
REMARK  status: ('A' for Active; 'I' for Inactive)
REMARK    1  A    between atoms: C_4  and  C_5
REMARK                            x       y       z     vdW  Elec       q    Type
REMARK                         _______ _______ _______ _____ _____    ______ ____
ROOT
ATOM      1  C   UNL     1       5.290   6.245  -9.862  0.00  0.00    -0.021 A 
ATOM      2  C   UNL     1       5.551   5.334  -8.836  0.00  0.00    -0.004 A 
ATOM      3  C   UNL     1       4.699   5.411  -7.743  0.00  0.00    -0.000 A 
ATOM      4  C   UNL     1       3.527   6.153  -7.788  0.00  0.00    -0.000 A 
ATOM      5  C   UNL     1       3.308   6.917  -8.906  0.00  0.00    -0.000 A 
ATOM      6  C   UNL     1       3.994   6.534 -10.054  0.00  0.00    -0.004 A 
ENDROOT
BRANCH   1   9
ATOM      7  N   UNL     1       8.582   6.076 -11.755  0.00  0.00    -0.133 NA
ATOM      8  C   UNL     1       7.635   6.632 -10.561  0.00  0.00    +0.096 C 
ATOM      9  C   UNL     1       6.204   5.796 -11.153  0.00  0.00    +0.041 C 
ATOM     10  C   UNL     1       6.558   7.430 -11.693  0.00  0.00    +0.025 C 
ENDBRANCH   1   9
TORSDOF 1
ENDMDL
MODEL 9
REMARK VINA RESULT:      -4.7      5.510      7.292
REMARK  Name = 
REMARK  1 active torsions:
REMARK  status: ('A' for Active; 'I' for Inactive)
REMARK    1  A    between atoms: C_4  and  C_5
REMARK                            x       y       z     vdW  Elec       q    Type
REMARK                         _______ _______ _______ _____ _____    ______ ____
ROOT
ATOM      1  C   UNL     1       4.556   5.958  -8.341  0.00  0.00    -0.021 A 
ATOM      2  C   UNL     1       3.994   6.508  -9.496  0.00  0.00    -0.004 A 
ATOM      3  C   UNL     1       4.895   6.813 -10.507  0.00  0.00    -0.000 A 
ATOM      4  C   UNL     1       6.207   6.362 -10.469  0.00  0.00    -0.000 A 
ATOM      5  C   UNL     1       6.619   5.717  -9.331  0.00  0.00    -0.000 A 
ATOM      6  C   UNL     1       5.615   5.160  -8.545  0.00  0.00    -0.004 A 
ENDROOT
BRANCH   1   9
ATOM      7  N   UNL     1       1.809   6.462  -5.763  0.00  0.00    -0.133 NA
ATOM      8  C   UNL     1       3.123   6.948  -6.579  0.00  0.00    +0.096 C 
ATOM      9  C   UNL     1       3.314   5.410  -7.412  0.00  0.00    +0.041 C 
ATOM     10  C   UNL     1       4.115   5.685  -5.873  0.00  0.00    +0.025 C 
ENDBRANCH   1   9
TORSDOF 1
ENDMDL
