MODEL 1
REMARK VINA RESULT:      -7.7      0.000      0.000
REMARK  Name = 
REMARK  11 active torsions:
REMARK  status: ('A' for Active; 'I' for Inactive)
REMARK    1  A    between atoms: C_2  and  C_3
REMARK    2  A    between atoms: C_3  and  C_5
REMARK    3  A    between atoms: C_5  and  O_7
REMARK    4  A    between atoms: O_7  and  C_8
REMARK    5  A    between atoms: C_18  and  C_19
REMARK    6  A    between atoms: C_19  and  C_20
REMARK    7  A    between atoms: C_20  and  C_21
REMARK    8  A    between atoms: C_21  and  C_23
REMARK    9  A    between atoms: C_23  and  C_24
REMARK   10  A    between atoms: C_24  and  C_26
REMARK   11  A    between atoms: C_26  and  C_27
REMARK                            x       y       z     vdW  Elec       q    Type
REMARK                         _______ _______ _______ _____ _____    ______ ____
ROOT
ATOM      1  C   UNL     1       1.959   7.001  -5.753  0.00  0.00    +0.176 C 
ATOM      2  C   UNL     1       2.526   5.974  -4.495  0.00  0.00    +0.063 C 
ATOM      3  C   UNL     1       3.838   5.574  -5.264  0.00  0.00    -0.021 C 
ATOM      4  C   UNL     1       4.899   6.490  -5.371  0.00  0.00    -0.009 C 
ATOM      5  C   UNL     1       5.304   7.093  -4.250  0.00  0.00    -0.027 C 
ATOM      6  C   UNL     1       4.529   6.630  -2.915  0.00  0.00    +0.022 C 
ATOM      7  C   UNL     1       4.448   5.070  -3.349  0.00  0.00    +0.005 C 
ATOM      8  C   UNL     1       3.251   4.635  -5.835  0.00  0.00    +0.002 C 
ATOM      9  C   UNL     1       1.938   4.552  -6.766  0.00  0.00    +0.177 C 
ATOM     10  O   UNL     1       1.252   3.536  -5.830  0.00  0.00    -0.218 OA
ATOM     11  C   UNL     1       3.047   7.215  -3.490  0.00  0.00    +0.012 C 
ATOM     12  C   UNL     1       0.986   5.764  -6.168  0.00  0.00    +0.081 C 
ENDROOT
BRANCH   1  13
ATOM     13  O   UNL     1       2.973   6.709  -6.875  0.00  0.00    -0.452 OA
BRANCH  13  14
ATOM     14  C   UNL     1       2.692   7.406  -7.917  0.00  0.00    +0.316 C 
ATOM     15  O   UNL     1       2.103   8.531  -7.916  0.00  0.00    -0.250 OA
BRANCH  14  16
ATOM     16  C   UNL     1       3.240   7.316  -9.413  0.00  0.00    +0.099 C 
ATOM     17  C   UNL     1       4.225   6.011  -9.268  0.00  0.00    +0.012 C 
BRANCH  16  19
ATOM     18  C   UNL     1       2.081   6.100 -10.190  0.00  0.00    +0.001 C 
ATOM     19  C   UNL     1       1.950   6.384  -9.861  0.00  0.00    +0.011 C 
ENDBRANCH  16  19
ENDBRANCH  14  16
ENDBRANCH  13  14
ENDBRANCH   1  13
BRANCH  11  20
ATOM     20  C   UNL     1       2.151   6.593  -2.293  0.00  0.00    +0.003 C 
BRANCH  20  21
ATOM     21  C   UNL     1       1.035   5.827  -2.776  0.00  0.00    +0.033 C 
BRANCH  21  22
ATOM     22  C   UNL     1       0.368   4.962  -1.532  0.00  0.00    +0.155 C 
ATOM     23  O   UNL     1       0.961   5.839  -0.435  0.00  0.00    -0.223 OA
BRANCH  22  24
ATOM     24  C   UNL     1      -1.050   5.812  -1.611  0.00  0.00    +0.066 C 
BRANCH  24  25
ATOM     25  C   UNL     1      -1.561   5.427  -3.137  0.00  0.00    +0.166 C 
ATOM     26  O   UNL     1      -2.770   4.679  -2.585  0.00  0.00    -0.222 OA
BRANCH  25  27
ATOM     27  C   UNL     1      -2.444   6.816  -3.324  0.00  0.00    +0.147 C 
BRANCH  27  28
ATOM     28  C   UNL     1      -2.149   7.318  -4.672  0.00  0.00    +0.367 C 
ATOM     29  O   UNL     1      -2.647   6.682  -5.804  0.00  0.00    -0.246 OA
ATOM     30  O   UNL     1      -1.345   8.285  -4.713  0.00  0.00    -0.246 OA
ENDBRANCH  27  28
ENDBRANCH  25  27
ENDBRANCH  24  25
ENDBRANCH  22  24
ENDBRANCH  21  22
ENDBRANCH  20  21
ENDBRANCH  11  20
TORSDOF 11
ENDMDL
MODEL 2
REMARK VINA RESULT:      -7.1      2.079      3.566
REMARK  Name = 
REMARK  11 active torsions:
REMARK  status: ('A' for Active; 'I' for Inactive)
REMARK    1  A    between atoms: C_2  and  C_3
REMARK    2  A    between atoms: C_3  and  C_5
REMARK    3  A    between atoms: C_5  and  O_7
REMARK    4  A    between atoms: O_7  and  C_8
REMARK    5  A    between atoms: C_18  and  C_19
REMARK    6  A    between atoms: C_19  and  C_20
REMARK    7  A    between atoms: C_20  and  C_21
REMARK    8  A    between atoms: C_21  and  C_23
REMARK    9  A    between atoms: C_23  and  C_24
REMARK   10  A    between atoms: C_24  and  C_26
REMARK   11  A    between atoms: C_26  and  C_27
REMARK                            x       y       z     vdW  Elec       q    Type
REMARK                         _______ _______ _______ _____ _____    ______ ____
ROOT
ATOM      1  C   UNL     1       3.077   7.066  -8.916  0.00  0.00    +0.176 C 
ATOM      2  C   UNL     1       2.356   6.152  -7.650  0.00  0.00    +0.063 C 
ATOM      3  C   UNL     1       3.385   4.969  -7.769  0.00  0.00    -0.021 C 
ATOM      4  C   UNL     1       4.695   5.124  -7.284  0.00  0.00    -0.009 C 
ATOM      5  C   UNL     1       4.838   5.608  -6.047  0.00  0.00    -0.027 C 
ATOM      6  C   UNL     1       3.456   5.897  -5.270  0.00  0.00    +0.022 C 
ATOM      7  C   UNL     1       2.706   4.582  -5.850  0.00  0.00    +0.005 C 
ATOM      8  C   UNL     1       2.687   4.411  -8.638  0.00  0.00    +0.002 C 
ATOM      9  C   UNL     1       2.117   4.882 -10.070  0.00  0.00    +0.177 C 
ATOM     10  O   UNL     1       0.657   4.595  -9.662  0.00  0.00    -0.218 OA
ATOM     11  C   UNL     1       2.989   7.073  -6.397  0.00  0.00    +0.012 C 
ATOM     12  C   UNL     1       1.873   6.502  -9.855  0.00  0.00    +0.081 C 
ENDROOT
BRANCH   1  13
ATOM     13  O   UNL     1       4.110   6.067  -9.472  0.00  0.00    -0.452 OA
BRANCH  13  14
ATOM     14  C   UNL     1       4.849   6.640 -10.353  0.00  0.00    +0.316 C 
ATOM     15  O   UNL     1       4.818   7.874 -10.652  0.00  0.00    -0.250 OA
BRANCH  14  16
ATOM     16  C   UNL     1       6.191   6.156 -11.067  0.00  0.00    +0.099 C 
ATOM     17  C   UNL     1       6.882   7.613 -11.371  0.00  0.00    +0.012 C 
BRANCH  16  19
ATOM     18  C   UNL     1       7.399   5.968  -9.678  0.00  0.00    +0.001 C 
ATOM     19  C   UNL     1       6.953   6.018  -9.607  0.00  0.00    +0.011 C 
ENDBRANCH  16  19
ENDBRANCH  14  16
ENDBRANCH  13  14
ENDBRANCH   1  13
BRANCH  11  20
ATOM     20  C   UNL     1       1.492   7.272  -5.814  0.00  0.00    +0.003 C 
BRANCH  20  21
ATOM     21  C   UNL     1       0.486   6.698  -6.664  0.00  0.00    +0.033 C 
BRANCH  21  22
ATOM     22  C   UNL     1      -0.910   6.468  -5.804  0.00  0.00    +0.155 C 
ATOM     23  O   UNL     1      -0.747   4.956  -5.698  0.00  0.00    -0.223 OA
BRANCH  22  24
ATOM     24  C   UNL     1      -0.154   6.771  -4.364  0.00  0.00    +0.066 C 
BRANCH  24  25
ATOM     25  C   UNL     1      -0.465   5.367  -3.545  0.00  0.00    +0.166 C 
ATOM     26  O   UNL     1       0.841   5.485  -2.768  0.00  0.00    -0.222 OA
BRANCH  25  27
ATOM     27  C   UNL     1      -1.310   6.116  -2.334  0.00  0.00    +0.147 C 
BRANCH  27  28
ATOM     28  C   UNL     1      -2.722   5.763  -2.531  0.00  0.00    +0.367 C 
ATOM     29  O   UNL     1      -3.738   6.676  -2.268  0.00  0.00    -0.246 OA
ATOM     30  O   UNL     1      -2.928   4.564  -2.850  0.00  0.00    -0.246 OA
ENDBRANCH  27  28
ENDBRANCH  25  27
ENDBRANCH  24  25
ENDBRANCH  22  24
ENDBRANCH  21  22
ENDBRANCH  20  21
ENDBRANCH  11  20
TORSDOF 11
ENDMDL
MODEL 3
REMARK VINA RESULT:      -7.0      1.791      3.602
REMARK  Name = 
REMARK  11 active torsions:
REMARK  status: ('A' for Active; 'I' for Inactive)
REMARK    1  A    between atoms: C_2  and  C_3
REMARK    2  A    between atoms: C_3  and  C_5
REMARK    3  A    between atoms: C_5  and  O_7
REMARK    4  A    between atoms: O_7  and  C_8
REMARK    5  A    between atoms: C_18  and  C_19
REMARK    6  A    between atoms: C_19  and  C_20
REMARK    7  A    between atoms: C_20  and  C_21
REMARK    8  A    between atoms: C_21  and  C_23
REMARK    9  A    between atoms: C_23  and  C_24
REMARK   10  A    between atoms: C_24  and  C_26
REMARK   11  A    between atoms: C_26  and  C_27
REMARK                            x       y       z     vdW  Elec       q    Type
REMARK                         _______ _______ _______ _____ _____    ______ ____
ROOT
ATOM      1  C   UNL     1       2.679   4.676  -5.996  0.00  0.00    +0.176 C 
ATOM      2  C   UNL     1       1.602   5.740  -5.179  0.00  0.00    +0.063 C 
ATOM      3  C   UNL     1       1.378   6.656  -6.437  0.00  0.00    -0.021 C 
ATOM      4  C   UNL     1       0.570   6.209  -7.498  0.00  0.00    -0.009 C 
ATOM      5  C   UNL     1      -0.632   5.715  -7.189  0.00  0.00    -0.027 C 
ATOM      6  C   UNL     1      -0.995   5.755  -5.620  0.00  0.00    +0.022 C 
ATOM      7  C   UNL     1      -0.310   7.202  -5.366  0.00  0.00    +0.005 C 
ATOM      8  C   UNL     1       2.369   7.351  -6.144  0.00  0.00    +0.002 C 
ATOM      9  C   UNL     1       3.925   7.013  -5.894  0.00  0.00    +0.177 C 
ATOM     10  O   UNL     1       3.904   7.628  -4.480  0.00  0.00    -0.218 OA
ATOM     11  C   UNL     1       0.278   4.708  -5.228  0.00  0.00    +0.012 C 
ATOM     12  C   UNL     1       3.871   5.492  -5.248  0.00  0.00    +0.081 C 
ENDROOT
BRANCH   1  13
ATOM     13  O   UNL     1       2.883   5.408  -7.335  0.00  0.00    -0.452 OA
BRANCH  13  14
ATOM     14  C   UNL     1       3.275   4.580  -8.236  0.00  0.00    +0.316 C 
ATOM     15  O   UNL     1       2.785   3.426  -8.441  0.00  0.00    -0.250 OA
BRANCH  14  16
ATOM     16  C   UNL     1       4.175   4.797  -9.536  0.00  0.00    +0.099 C 
ATOM     17  C   UNL     1       3.963   6.411  -9.750  0.00  0.00    +0.012 C 
BRANCH  16  19
ATOM     18  C   UNL     1       5.790   5.328  -8.805  0.00  0.00    +0.001 C 
ATOM     19  C   UNL     1       5.520   5.025  -8.602  0.00  0.00    +0.011 C 
ENDBRANCH  16  19
ENDBRANCH  14  16
ENDBRANCH  13  14
ENDBRANCH   1  13
BRANCH  11  20
ATOM     20  C   UNL     1       0.126   4.861  -3.623  0.00  0.00    +0.003 C 
BRANCH  20  21
ATOM     21  C   UNL     1       1.341   5.294  -2.990  0.00  0.00    +0.033 C 
BRANCH  21  22
ATOM     22  C   UNL     1       1.219   5.102  -1.351  0.00  0.00    +0.155 C 
ATOM     23  O   UNL     1       2.614   5.640  -1.055  0.00  0.00    -0.223 OA
BRANCH  22  24
ATOM     24  C   UNL     1       0.481   6.571  -1.164  0.00  0.00    +0.066 C 
BRANCH  24  25
ATOM     25  C   UNL     1      -0.878   6.134  -0.327  0.00  0.00    +0.166 C 
ATOM     26  O   UNL     1      -0.609   7.191   0.738  0.00  0.00    -0.222 OA
BRANCH  25  27
ATOM     27  C   UNL     1      -1.872   7.160  -1.164  0.00  0.00    +0.147 C 
BRANCH  27  28
ATOM     28  C   UNL     1      -2.655   6.324  -2.084  0.00  0.00    +0.367 C 
ATOM     29  O   UNL     1      -2.741   4.947  -1.909  0.00  0.00    -0.246 OA
ATOM     30  O   UNL     1      -3.139   6.934  -3.071  0.00  0.00    -0.246 OA
ENDBRANCH  27  28
ENDBRANCH  25  27
ENDBRANCH  24  25
ENDBRANCH  22  24
ENDBRANCH  21  22
ENDBRANCH  20  21
ENDBRANCH  11  20
TORSDOF 11
ENDMDL
MODEL 4
REMARK VINA RESULT:      -6.8      2.365      4.674
REMARK  Name = 
REMARK  11 active torsions:
REMARK  status: ('A' for Active; 'I' for Inactive)
REMARK    1  A    between atoms: C_2  and  C_3
REMARK    2  A    between atoms: C_3  and  C_5
REMARK    3  A    between atoms: C_5  and  O_7
REMARK    4  A    between atoms: O_7  and  C_8
REMARK    5  A    between atoms: C_18  and  C_19
REMARK    6  A    between atoms: C_19  and  C_20
REMARK    7  A    between atoms: C_20  and  C_21
REMARK    8  A    between atoms: C_21  and  C_23
REMARK    9  A    between atoms: C_23  and  C_24
REMARK   10  A    between atoms: C_24  and  C_26
REMARK   11  A    between atoms: C_26  and  C_27
REMARK                            x       y       z     vdW  Elec       q    Type
REMARK                         _______ _______ _______ _____ _____    ______ ____
ROOT
ATOM      1  C   UNL     1       2.588   4.714  -5.939  0.00  0.00    +0.176 C 
ATOM      2  C   UNL     1       1.583   5.826  -5.094  0.00  0.00    +0.063 C 
ATOM      3  C   UNL     1       1.224   6.649  -6.385  0.00  0.00    -0.021 C 
ATOM      4  C   UNL     1       0.323   6.125  -7.327  0.00  0.00    -0.009 C 
ATOM      5  C   UNL     1      -0.837   5.645  -6.868  0.00  0.00    -0.027 C 
ATOM      6  C   UNL     1      -1.045   5.792  -5.277  0.00  0.00    +0.022 C 
ATOM      7  C   UNL     1      -0.357   7.258  -5.193  0.00  0.00    +0.005 C 
ATOM      8  C   UNL     1       2.230   7.370  -6.239  0.00  0.00    +0.002 C 
ATOM      9  C   UNL     1       3.807   7.060  -6.121  0.00  0.00    +0.177 C 
ATOM     10  O   UNL     1       3.917   7.773  -4.758  0.00  0.00    -0.218 OA
ATOM     11  C   UNL     1       0.274   4.784  -4.941  0.00  0.00    +0.012 C 
ATOM     12  C   UNL     1       3.837   5.588  -5.370  0.00  0.00    +0.081 C 
ENDROOT
BRANCH   1  13
ATOM     13  O   UNL     1       2.651   5.352  -7.339  0.00  0.00    -0.452 OA
BRANCH  13  14
ATOM     14  C   UNL     1       3.121   4.510  -8.188  0.00  0.00    +0.316 C 
ATOM     15  O   UNL     1       2.704   3.322  -8.357  0.00  0.00    -0.250 OA
BRANCH  14  16
ATOM     16  C   UNL     1       4.053   4.722  -9.465  0.00  0.00    +0.099 C 
ATOM     17  C   UNL     1       3.789   6.319  -9.736  0.00  0.00    +0.012 C 
BRANCH  16  19
ATOM     18  C   UNL     1       5.692   5.203  -8.752  0.00  0.00    +0.001 C 
ATOM     19  C   UNL     1       5.359   5.028  -8.499  0.00  0.00    +0.011 C 
ENDBRANCH  16  19
ENDBRANCH  14  16
ENDBRANCH  13  14
ENDBRANCH   1  13
BRANCH  11  20
ATOM     20  C   UNL     1       0.279   5.047  -3.344  0.00  0.00    +0.003 C 
BRANCH  20  21
ATOM     21  C   UNL     1       1.559   5.484  -2.858  0.00  0.00    +0.033 C 
BRANCH  21  22
ATOM     22  C   UNL     1       1.392   6.133  -1.344  0.00  0.00    +0.155 C 
ATOM     23  O   UNL     1       1.690   4.829  -0.613  0.00  0.00    -0.223 OA
BRANCH  22  24
ATOM     24  C   UNL     1       2.964   6.647  -1.316  0.00  0.00    +0.066 C 
BRANCH  24  25
ATOM     25  C   UNL     1       3.067   7.257   0.219  0.00  0.00    +0.166 C 
ATOM     26  O   UNL     1       4.285   6.392   0.522  0.00  0.00    -0.222 OA
BRANCH  25  27
ATOM     27  C   UNL     1       4.022   8.536  -0.221  0.00  0.00    +0.147 C 
BRANCH  27  28
ATOM     28  C   UNL     1       3.174   9.733  -0.151  0.00  0.00    +0.367 C 
ATOM     29  O   UNL     1       1.983   9.732   0.568  0.00  0.00    -0.246 OA
ATOM     30  O   UNL     1       3.557  10.696  -0.863  0.00  0.00    -0.246 OA
ENDBRANCH  27  28
ENDBRANCH  25  27
ENDBRANCH  24  25
ENDBRANCH  22  24
ENDBRANCH  21  22
ENDBRANCH  20  21
ENDBRANCH  11  20
TORSDOF 11
ENDMDL
MODEL 5
REMARK VINA RESULT:      -6.8      2.947      7.788
REMARK  Name = 
REMARK  11 active torsions:
REMARK  status: ('A' for Active; 'I' for Inactive)
REMARK    1  A    between atoms: C_2  and  C_3
REMARK    2  A    between atoms: C_3  and  C_5
REMARK    3  A    between atoms: C_5  and  O_7
REMARK    4  A    between atoms: O_7  and  C_8
REMARK    5  A    between atoms: C_18  and  C_19
REMARK    6  A    between atoms: C_19  and  C_20
REMARK    7  A    between atoms: C_20  and  C_21
REMARK    8  A    between atoms: C_21  and  C_23
REMARK    9  A    between atoms: C_23  and  C_24
REMARK   10  A    between atoms: C_24  and  C_26
REMARK   11  A    between atoms: C_26  and  C_27
REMARK                            x       y       z     vdW  Elec       q    Type
REMARK                         _______ _______ _______ _____ _____    ______ ____
ROOT
ATOM      1  C   UNL     1       1.467   7.062  -5.945  0.00  0.00    +0.176 C 
ATOM      2  C   UNL     1       2.071   6.044  -7.194  0.00  0.00    +0.063 C 
ATOM      3  C   UNL     1       1.028   4.900  -6.915  0.00  0.00    -0.021 C 
ATOM      4  C   UNL     1      -0.312   5.056  -7.311  0.00  0.00    -0.009 C 
ATOM      5  C   UNL     1      -0.538   5.458  -8.565  0.00  0.00    -0.027 C 
ATOM      6  C   UNL     1       0.787   5.655  -9.461  0.00  0.00    +0.022 C 
ATOM      7  C   UNL     1       1.550   4.364  -8.846  0.00  0.00    +0.005 C 
ATOM      8  C   UNL     1       1.777   4.385  -6.062  0.00  0.00    +0.002 C 
ATOM      9  C   UNL     1       2.466   4.938  -4.714  0.00  0.00    +0.177 C 
ATOM     10  O   UNL     1       3.883   4.585  -5.209  0.00  0.00    -0.218 OA
ATOM     11  C   UNL     1       1.363   6.893  -8.458  0.00  0.00    +0.012 C 
ATOM     12  C   UNL     1       2.727   6.532  -5.061  0.00  0.00    +0.081 C 
ENDROOT
BRANCH   1  13
ATOM     13  O   UNL     1       0.458   6.132  -5.245  0.00  0.00    -0.452 OA
BRANCH  13  14
ATOM     14  C   UNL     1      -0.375   6.824  -4.554  0.00  0.00    +0.316 C 
ATOM     15  O   UNL     1      -0.855   7.952  -4.891  0.00  0.00    -0.250 OA
BRANCH  14  16
ATOM     16  C   UNL     1      -1.309   6.417  -3.327  0.00  0.00    +0.099 C 
ATOM     17  C   UNL     1      -2.213   7.781  -3.204  0.00  0.00    +0.012 C 
BRANCH  16  19
ATOM     18  C   UNL     1      -2.692   5.465  -4.105  0.00  0.00    +0.001 C 
ATOM     19  C   UNL     1      -2.393   5.703  -4.350  0.00  0.00    +0.011 C 
ENDBRANCH  16  19
ENDBRANCH  14  16
ENDBRANCH  13  14
ENDBRANCH   1  13
BRANCH  11  20
ATOM     20  C   UNL     1       2.816   7.011  -9.163  0.00  0.00    +0.003 C 
BRANCH  20  21
ATOM     21  C   UNL     1       3.880   6.538  -8.322  0.00  0.00    +0.033 C 
BRANCH  21  22
ATOM     22  C   UNL     1       5.150   6.031  -9.257  0.00  0.00    +0.155 C 
ATOM     23  O   UNL     1       4.758   4.559  -9.217  0.00  0.00    -0.223 OA
BRANCH  22  24
ATOM     24  C   UNL     1       4.329   6.337 -10.660  0.00  0.00    +0.066 C 
BRANCH  24  25
ATOM     25  C   UNL     1       5.138   5.354 -11.717  0.00  0.00    +0.166 C 
ATOM     26  O   UNL     1       4.502   6.052 -12.914  0.00  0.00    -0.222 OA
BRANCH  25  27
ATOM     27  C   UNL     1       6.473   6.331 -11.794  0.00  0.00    +0.147 C 
BRANCH  27  28
ATOM     28  C   UNL     1       7.626   5.445 -12.003  0.00  0.00    +0.367 C 
ATOM     29  O   UNL     1       7.741   4.671 -13.153  0.00  0.00    -0.246 OA
ATOM     30  O   UNL     1       8.423   5.375 -11.033  0.00  0.00    -0.246 OA
ENDBRANCH  27  28
ENDBRANCH  25  27
ENDBRANCH  24  25
ENDBRANCH  22  24
ENDBRANCH  21  22
ENDBRANCH  20  21
ENDBRANCH  11  20
TORSDOF 11
ENDMDL
MODEL 6
REMARK VINA RESULT:      -6.3      2.449      5.130
REMARK  Name = 
REMARK  11 active torsions:
REMARK  status: ('A' for Active; 'I' for Inactive)
REMARK    1  A    between atoms: C_2  and  C_3
REMARK    2  A    between atoms: C_3  and  C_5
REMARK    3  A    between atoms: C_5  and  O_7
REMARK    4  A    between atoms: O_7  and  C_8
REMARK    5  A    between atoms: C_18  and  C_19
REMARK    6  A    between atoms: C_19  and  C_20
REMARK    7  A    between atoms: C_20  and  C_21
REMARK    8  A    between atoms: C_21  and  C_23
REMARK    9  A    between atoms: C_23  and  C_24
REMARK   10  A    between atoms: C_24  and  C_26
REMARK   11  A    between atoms: C_26  and  C_27
REMARK                            x       y       z     vdW  Elec       q    Type
REMARK                         _______ _______ _______ _____ _____    ______ ____
ROOT
ATOM      1  C   UNL     1       1.783   4.715  -8.119  0.00  0.00    +0.176 C 
ATOM      2  C   UNL     1       1.671   5.693  -6.708  0.00  0.00    +0.063 C 
ATOM      3  C   UNL     1       0.412   6.482  -7.223  0.00  0.00    -0.021 C 
ATOM      4  C   UNL     1      -0.851   5.865  -7.231  0.00  0.00    -0.009 C 
ATOM      5  C   UNL     1      -1.240   5.249  -6.111  0.00  0.00    -0.027 C 
ATOM      6  C   UNL     1      -0.200   5.355  -4.885  0.00  0.00    +0.022 C 
ATOM      7  C   UNL     1       0.215   6.890  -5.202  0.00  0.00    +0.005 C 
ATOM      8  C   UNL     1       1.135   7.314  -7.805  0.00  0.00    +0.002 C 
ATOM      9  C   UNL     1       2.287   7.189  -8.924  0.00  0.00    +0.177 C 
ATOM     10  O   UNL     1       3.328   7.896  -8.033  0.00  0.00    -0.218 OA
ATOM     11  C   UNL     1       0.994   4.505  -5.734  0.00  0.00    +0.012 C 
ATOM     12  C   UNL     1       2.972   5.724  -8.585  0.00  0.00    +0.081 C 
ENDROOT
BRANCH   1  13
ATOM     13  O   UNL     1       0.733   5.369  -9.037  0.00  0.00    -0.452 OA
BRANCH  13  14
ATOM     14  C   UNL     1       0.632   4.709 -10.134  0.00  0.00    +0.316 C 
ATOM     15  O   UNL     1       0.827   3.460 -10.264  0.00  0.00    -0.250 OA
BRANCH  14  16
ATOM     16  C   UNL     1      -0.057   5.086 -11.522  0.00  0.00    +0.099 C 
ATOM     17  C   UNL     1      -0.469   6.645 -11.210  0.00  0.00    +0.012 C 
BRANCH  16  19
ATOM     18  C   UNL     1       1.377   5.955 -12.305  0.00  0.00    +0.001 C 
ATOM     19  C   UNL     1       1.403   5.525 -12.162  0.00  0.00    +0.011 C 
ENDBRANCH  16  19
ENDBRANCH  14  16
ENDBRANCH  13  14
ENDBRANCH   1  13
BRANCH  11  20
ATOM     20  C   UNL     1       2.172   4.751  -4.651  0.00  0.00    +0.003 C 
BRANCH  20  21
ATOM     21  C   UNL     1       3.475   4.438  -5.169  0.00  0.00    +0.033 C 
BRANCH  21  22
ATOM     22  C   UNL     1       4.625   5.316  -4.363  0.00  0.00    +0.155 C 
ATOM     23  O   UNL     1       4.870   6.289  -5.510  0.00  0.00    -0.223 OA
BRANCH  22  24
ATOM     24  C   UNL     1       3.485   6.271  -3.637  0.00  0.00    +0.066 C 
BRANCH  24  25
ATOM     25  C   UNL     1       4.343   6.857  -2.349  0.00  0.00    +0.166 C 
ATOM     26  O   UNL     1       3.831   8.271  -2.602  0.00  0.00    -0.222 OA
BRANCH  25  27
ATOM     27  C   UNL     1       3.137   6.562  -1.254  0.00  0.00    +0.147 C 
BRANCH  27  28
ATOM     28  C   UNL     1       3.267   5.153  -0.860  0.00  0.00    +0.367 C 
ATOM     29  O   UNL     1       4.516   4.564  -0.693  0.00  0.00    -0.246 OA
ATOM     30  O   UNL     1       2.183   4.520  -0.790  0.00  0.00    -0.246 OA
ENDBRANCH  27  28
ENDBRANCH  25  27
ENDBRANCH  24  25
ENDBRANCH  22  24
ENDBRANCH  21  22
ENDBRANCH  20  21
ENDBRANCH  11  20
TORSDOF 11
ENDMDL
MODEL 7
REMARK VINA RESULT:      -6.1      2.039      2.989
REMARK  Name = 
REMARK  11 active torsions:
REMARK  status: ('A' for Active; 'I' for Inactive)
REMARK    1  A    between atoms: C_2  and  C_3
REMARK    2  A    between atoms: C_3  and  C_5
REMARK    3  A    between atoms: C_5  and  O_7
REMARK    4  A    between atoms: O_7  and  C_8
REMARK    5  A    between atoms: C_18  and  C_19
REMARK    6  A    between atoms: C_19  and  C_20
REMARK    7  A    between atoms: C_20  and  C_21
REMARK    8  A    between atoms: C_21  and  C_23
REMARK    9  A    between atoms: C_23  and  C_24
REMARK   10  A    between atoms: C_24  and  C_26
REMARK   11  A    between atoms: C_26  and  C_27
REMARK                            x       y       z     vdW  Elec       q    Type
REMARK                         _______ _______ _______ _____ _____    ______ ____
ROOT
ATOM      1  C   UNL     1       1.722   7.373  -5.544  0.00  0.00    +0.176 C 
ATOM      2  C   UNL     1       2.443   6.292  -4.416  0.00  0.00    +0.063 C 
ATOM      3  C   UNL     1       2.664   5.156  -5.480  0.00  0.00    -0.021 C 
ATOM      4  C   UNL     1       3.686   5.276  -6.438  0.00  0.00    -0.009 C 
ATOM      5  C   UNL     1       4.904   5.605  -5.998  0.00  0.00    -0.027 C 
ATOM      6  C   UNL     1       5.024   5.765  -4.399  0.00  0.00    +0.022 C 
ATOM      7  C   UNL     1       4.042   4.518  -4.071  0.00  0.00    +0.005 C 
ATOM      8  C   UNL     1       1.525   4.697  -5.268  0.00  0.00    +0.002 C 
ATOM      9  C   UNL     1       0.045   5.330  -5.338  0.00  0.00    +0.177 C 
ATOM     10  O   UNL     1      -0.257   4.965  -3.870  0.00  0.00    -0.218 OA
ATOM     11  C   UNL     1       3.935   7.063  -4.379  0.00  0.00    +0.012 C 
ATOM     12  C   UNL     1       0.299   6.906  -4.907  0.00  0.00    +0.081 C 
ENDROOT
BRANCH   1  13
ATOM     13  O   UNL     1       1.573   6.473  -6.786  0.00  0.00    -0.452 OA
BRANCH  13  14
ATOM     14  C   UNL     1       1.607   7.186  -7.854  0.00  0.00    +0.316 C 
ATOM     15  O   UNL     1       2.183   8.312  -7.972  0.00  0.00    -0.250 OA
BRANCH  14  16
ATOM     16  C   UNL     1       1.296   6.809  -9.373  0.00  0.00    +0.099 C 
ATOM     17  C   UNL     1       2.633   5.920  -9.715  0.00  0.00    +0.012 C 
BRANCH  16  19
ATOM     18  C   UNL     1       0.088   5.420  -9.176  0.00  0.00    +0.001 C 
ATOM     19  C   UNL     1       0.442   5.475  -8.898  0.00  0.00    +0.011 C 
ENDBRANCH  16  19
ENDBRANCH  14  16
ENDBRANCH  13  14
ENDBRANCH   1  13
BRANCH  11  20
ATOM     20  C   UNL     1       3.822   7.156  -2.766  0.00  0.00    +0.003 C 
BRANCH  20  21
ATOM     21  C   UNL     1       2.467   7.059  -2.299  0.00  0.00    +0.033 C 
BRANCH  21  22
ATOM     22  C   UNL     1       2.430   6.251  -0.854  0.00  0.00    +0.155 C 
ATOM     23  O   UNL     1       3.900   6.494  -0.533  0.00  0.00    -0.223 OA
BRANCH  22  24
ATOM     24  C   UNL     1       1.906   7.593  -0.039  0.00  0.00    +0.066 C 
BRANCH  24  25
ATOM     25  C   UNL     1       0.597   6.979   0.766  0.00  0.00    +0.166 C 
ATOM     26  O   UNL     1       1.208   7.342   2.115  0.00  0.00    -0.222 OA
BRANCH  25  27
ATOM     27  C   UNL     1      -0.254   8.399   0.715  0.00  0.00    +0.147 C 
BRANCH  27  28
ATOM     28  C   UNL     1      -1.572   8.073   0.153  0.00  0.00    +0.367 C 
ATOM     29  O   UNL     1      -1.808   8.139  -1.217  0.00  0.00    -0.246 OA
ATOM     30  O   UNL     1      -2.467   7.838   1.003  0.00  0.00    -0.246 OA
ENDBRANCH  27  28
ENDBRANCH  25  27
ENDBRANCH  24  25
ENDBRANCH  22  24
ENDBRANCH  21  22
ENDBRANCH  20  21
ENDBRANCH  11  20
TORSDOF 11
ENDMDL
MODEL 8
REMARK VINA RESULT:      -6.1      2.856      7.407
REMARK  Name = 
REMARK  11 active torsions:
REMARK  status: ('A' for Active; 'I' for Inactive)
REMARK    1  A    between atoms: C_2  and  C_3
REMARK    2  A    between atoms: C_3  and  C_5
REMARK    3  A    between atoms: C_5  and  O_7
REMARK    4  A    between atoms: O_7  and  C_8
REMARK    5  A    between atoms: C_18  and  C_19
REMARK    6  A    between atoms: C_19  and  C_20
REMARK    7  A    between atoms: C_20  and  C_21
REMARK    8  A    between atoms: C_21  and  C_23
REMARK    9  A    between atoms: C_23  and  C_24
REMARK   10  A    between atoms: C_24  and  C_26
REMARK   11  A    between atoms: C_26  and  C_27
REMARK                            x       y       z     vdW  Elec       q    Type
REMARK                         _______ _______ _______ _____ _____    ______ ____
ROOT
ATOM      1  C   UNL     1       1.387   4.958  -5.388  0.00  0.00    +0.176 C 
ATOM      2  C   UNL     1       2.824   5.824  -5.769  0.00  0.00    +0.063 C 
ATOM      3  C   UNL     1       2.501   7.009  -4.788  0.00  0.00    -0.021 C 
ATOM      4  C   UNL     1       2.645   6.834  -3.400  0.00  0.00    -0.009 C 
ATOM      5  C   UNL     1       3.791   6.303  -2.965  0.00  0.00    -0.027 C 
ATOM      6  C   UNL     1       4.871   5.986  -4.119  0.00  0.00    +0.022 C 
ATOM      7  C   UNL     1       4.540   7.324  -4.974  0.00  0.00    +0.005 C 
ATOM      8  C   UNL     1       1.849   7.601  -5.670  0.00  0.00    +0.002 C 
ATOM      9  C   UNL     1       0.584   7.186  -6.578  0.00  0.00    +0.177 C 
ATOM     10  O   UNL     1       1.346   7.459  -7.890  0.00  0.00    -0.218 OA
ATOM     11  C   UNL     1       3.850   4.855  -4.859  0.00  0.00    +0.012 C 
ATOM     12  C   UNL     1       0.793   5.559  -6.779  0.00  0.00    +0.081 C 
ENDROOT
BRANCH   1  13
ATOM     13  O   UNL     1       0.633   5.976  -4.511  0.00  0.00    -0.452 OA
BRANCH  13  14
ATOM     14  C   UNL     1      -0.390   5.419  -3.969  0.00  0.00    +0.316 C 
ATOM     15  O   UNL     1      -0.390   4.793  -2.864  0.00  0.00    -0.250 OA
BRANCH  14  16
ATOM     16  C   UNL     1      -1.949   5.595  -4.254  0.00  0.00    +0.099 C 
ATOM     17  C   UNL     1      -2.528   5.434  -2.726  0.00  0.00    +0.012 C 
BRANCH  16  19
ATOM     18  C   UNL     1      -2.132   7.384  -3.813  0.00  0.00    +0.001 C 
ATOM     19  C   UNL     1      -1.821   7.237  -4.109  0.00  0.00    +0.011 C 
ENDBRANCH  16  19
ENDBRANCH  14  16
ENDBRANCH  13  14
ENDBRANCH   1  13
BRANCH  11  20
ATOM     20  C   UNL     1       4.772   4.636  -6.171  0.00  0.00    +0.003 C 
BRANCH  20  21
ATOM     21  C   UNL     1       4.159   5.137  -7.370  0.00  0.00    +0.033 C 
BRANCH  21  22
ATOM     22  C   UNL     1       4.905   4.484  -8.696  0.00  0.00    +0.155 C 
ATOM     23  O   UNL     1       3.759   4.794  -9.653  0.00  0.00    -0.223 OA
BRANCH  22  24
ATOM     24  C   UNL     1       5.714   5.891  -9.019  0.00  0.00    +0.066 C 
BRANCH  24  25
ATOM     25  C   UNL     1       5.950   5.749 -10.651  0.00  0.00    +0.166 C 
ATOM     26  O   UNL     1       5.714   7.241 -10.854  0.00  0.00    -0.222 OA
BRANCH  25  27
ATOM     27  C   UNL     1       7.588   5.970 -10.558  0.00  0.00    +0.147 C 
BRANCH  27  28
ATOM     28  C   UNL     1       8.147   5.485 -11.827  0.00  0.00    +0.367 C 
ATOM     29  O   UNL     1       7.440   4.599 -12.634  0.00  0.00    -0.246 OA
ATOM     30  O   UNL     1       9.327   5.851 -12.060  0.00  0.00    -0.246 OA
ENDBRANCH  27  28
ENDBRANCH  25  27
ENDBRANCH  24  25
ENDBRANCH  22  24
ENDBRANCH  21  22
ENDBRANCH  20  21
ENDBRANCH  11  20
TORSDOF 11
ENDMDL
MODEL 9
REMARK VINA RESULT:      -6.1      3.711      8.720
REMARK  Name = 
REMARK  11 active torsions:
REMARK  status: ('A' for Active; 'I' for Inactive)
REMARK    1  A    between atoms: C_2  and  C_3
REMARK    2  A    between atoms: C_3  and  C_5
REMARK    3  A    between atoms: C_5  and  O_7
REMARK    4  A    between atoms: O_7  and  C_8
REMARK    5  A    between atoms: C_18  and  C_19
REMARK    6  A    between atoms: C_19  and  C_20
REMARK    7  A    between atoms: C_20  and  C_21
REMARK    8  A    between atoms: C_21  and  C_23
REMARK    9  A    between atoms: C_23  and  C_24
REMARK   10  A    between atoms: C_24  and  C_26
REMARK   11  A    between atoms: C_26  and  C_27
REMARK                            x       y       z     vdW  Elec       q    Type
REMARK                         _______ _______ _______ _____ _____    ______ ____
ROOT
ATOM      1  C   UNL     1       2.136   6.558  -8.436  0.00  0.00    +0.176 C 
ATOM      2  C   UNL     1       2.220   5.733  -9.944  0.00  0.00    +0.063 C 
ATOM      3  C   UNL     1       0.727   5.245  -9.885  0.00  0.00    -0.021 C 
ATOM      4  C   UNL     1      -0.320   6.152 -10.126  0.00  0.00    -0.009 C 
ATOM      5  C   UNL     1      -0.230   6.918 -11.217  0.00  0.00    -0.027 C 
ATOM      6  C   UNL     1       1.068   6.641 -12.131  0.00  0.00    +0.022 C 
ATOM      7  C   UNL     1       1.030   5.033 -11.923  0.00  0.00    +0.005 C 
ATOM      8  C   UNL     1       1.054   4.225  -9.249  0.00  0.00    +0.002 C 
ATOM      9  C   UNL     1       1.838   3.988  -7.861  0.00  0.00    +0.177 C 
ATOM     10  O   UNL     1       2.910   3.107  -8.535  0.00  0.00    -0.218 OA
ATOM     11  C   UNL     1       2.125   7.113 -10.895  0.00  0.00    +0.012 C 
ATOM     12  C   UNL     1       2.893   5.259  -7.813  0.00  0.00    +0.081 C 
ENDROOT
BRANCH   1  13
ATOM     13  O   UNL     1       0.752   6.122  -7.920  0.00  0.00    -0.452 OA
BRANCH  13  14
ATOM     14  C   UNL     1       0.614   6.458  -6.687  0.00  0.00    +0.316 C 
ATOM     15  O   UNL     1       0.981   7.563  -6.179  0.00  0.00    -0.250 OA
BRANCH  14  16
ATOM     16  C   UNL     1      -0.298   5.845  -5.532  0.00  0.00    +0.099 C 
ATOM     17  C   UNL     1      -0.973   7.225  -4.952  0.00  0.00    +0.012 C 
BRANCH  16  19
ATOM     18  C   UNL     1      -1.903   5.460  -6.370  0.00  0.00    +0.001 C 
ATOM     19  C   UNL     1      -1.537   5.602  -6.598  0.00  0.00    +0.011 C 
ENDBRANCH  16  19
ENDBRANCH  14  16
ENDBRANCH  13  14
ENDBRANCH   1  13
BRANCH  11  20
ATOM     20  C   UNL     1       3.480   6.657 -11.655  0.00  0.00    +0.003 C 
BRANCH  20  21
ATOM     21  C   UNL     1       4.391   5.958 -10.792  0.00  0.00    +0.033 C 
BRANCH  21  22
ATOM     22  C   UNL     1       5.910   6.601 -10.941  0.00  0.00    +0.155 C 
ATOM     23  O   UNL     1       6.498   5.810  -9.778  0.00  0.00    -0.223 OA
BRANCH  22  24
ATOM     24  C   UNL     1       6.346   5.483 -12.079  0.00  0.00    +0.066 C 
BRANCH  24  25
ATOM     25  C   UNL     1       7.523   6.312 -12.896  0.00  0.00    +0.166 C 
ATOM     26  O   UNL     1       8.477   5.126 -12.804  0.00  0.00    -0.222 OA
BRANCH  25  27
ATOM     27  C   UNL     1       6.994   5.834 -14.391  0.00  0.00    +0.147 C 
BRANCH  27  28
ATOM     28  C   UNL     1       5.933   6.773 -14.777  0.00  0.00    +0.367 C 
ATOM     29  O   UNL     1       4.621   6.345 -14.955  0.00  0.00    -0.246 OA
ATOM     30  O   UNL     1       6.324   7.942 -15.026  0.00  0.00    -0.246 OA
ENDBRANCH  27  28
ENDBRANCH  25  27
ENDBRANCH  24  25
ENDBRANCH  22  24
ENDBRANCH  21  22
ENDBRANCH  20  21
ENDBRANCH  11  20
TORSDOF 11
ENDMDL
