MODEL 1
REMARK VINA RESULT:      -9.7      0.000      0.000
REMARK  Name = 
REMARK  4 active torsions:
REMARK  status: ('A' for Active; 'I' for Inactive)
REMARK    1  A    between atoms: C_4  and  C_6
REMARK    2  A    between atoms: N_12  and  C_13
REMARK    3  A    between atoms: C_16  and  N_17
REMARK    4  A    between atoms: N_27  and  C_28
REMARK                            x       y       z     vdW  Elec       q    Type
REMARK                         _______ _______ _______ _____ _____    ______ ____
ROOT
ATOM      1  C   UNL     1       1.039   6.095  -2.705  0.00  0.00    +0.115 A 
ATOM      2  N   UNL     1       0.477   6.486  -3.860  0.00  0.00    -0.311 N 
ATOM      3  C   UNL     1       1.384   6.305  -4.852  0.00  0.00    +0.148 A 
ATOM      4  C   UNL     1       2.572   5.857  -4.290  0.00  0.00    +0.055 A 
ATOM      5  C   UNL     1       3.565   5.461  -5.147  0.00  0.00    +0.105 A 
ATOM      6  N   UNL     1       3.291   5.326  -6.467  0.00  0.00    -0.210 NA
ATOM      7  C   UNL     1       2.237   5.963  -7.032  0.00  0.00    +0.244 A 
ATOM      8  N   UNL     1       1.794   5.618  -8.350  0.00  0.00    -0.159 NA
ATOM      9  N   UNL     1       1.419   6.612  -6.169  0.00  0.00    -0.195 NA
ATOM     10  C   UNL     1       2.388   5.859  -2.914  0.00  0.00    +0.026 A 
ENDROOT
BRANCH   8  11
ATOM     11  C   UNL     1       2.742   5.373  -9.385  0.00  0.00    +0.155 A 
ATOM     12  N   UNL     1       2.781   6.244 -10.422  0.00  0.00    -0.226 NA
ATOM     13  C   UNL     1       3.946   6.454 -11.075  0.00  0.00    +0.115 A 
ATOM     14  C   UNL     1       5.170   6.043 -10.557  0.00  0.00    +0.067 A 
ATOM     15  C   UNL     1       5.114   4.952  -9.698  0.00  0.00    +0.019 A 
ATOM     16  C   UNL     1       3.876   4.603  -9.174  0.00  0.00    +0.037 A 
BRANCH  14  17
ATOM     17  N   UNL     1       6.316   6.902 -10.572  0.00  0.00    -0.303 N 
ATOM     18  C   UNL     1       6.315   7.906 -11.635  0.00  0.00    +0.110 C 
ATOM     19  C   UNL     1       6.986   7.240 -12.829  0.00  0.00    +0.110 C 
ATOM     20  N   UNL     1       6.971   5.786 -12.689  0.00  0.00    -0.214 NA
ATOM     21  C   UNL     1       7.817   5.358 -11.581  0.00  0.00    +0.110 C 
ATOM     22  C   UNL     1       7.602   6.241 -10.357  0.00  0.00    +0.110 C 
ENDBRANCH  14  17
ENDBRANCH   8  11
BRANCH   1  25
ATOM     23  C   UNL     1       1.703   7.343  -0.090  0.00  0.00    +0.115 C 
ATOM     24  N   UNL     1       0.369   6.870  -0.426  0.00  0.00    -0.271 N 
ATOM     25  C   UNL     1       0.290   5.900  -1.465  0.00  0.00    +0.265 C 
ATOM     26  O   UNL     1      -0.170   4.747  -1.264  0.00  0.00    -0.268 OA
ATOM     27  C   UNL     1      -0.629   6.877   0.622  0.00  0.00    +0.115 C 
ENDBRANCH   1  25
BRANCH   2  28
ATOM     28  C   UNL     1      -0.958   6.580  -4.101  0.00  0.00    +0.087 C 
ATOM     29  C   UNL     1      -1.335   7.922  -4.684  0.00  0.00    +0.023 C 
ATOM     30  C   UNL     1      -2.692   7.612  -5.297  0.00  0.00    +0.002 C 
ATOM     31  C   UNL     1      -2.541   6.239  -5.909  0.00  0.00    +0.002 C 
ATOM     32  C   UNL     1      -1.423   5.578  -5.120  0.00  0.00    +0.023 C 
ENDBRANCH   2  28
TORSDOF 4
ENDMDL
MODEL 2
REMARK VINA RESULT:      -9.5      2.928      9.633
REMARK  Name = 
REMARK  4 active torsions:
REMARK  status: ('A' for Active; 'I' for Inactive)
REMARK    1  A    between atoms: C_4  and  C_6
REMARK    2  A    between atoms: N_12  and  C_13
REMARK    3  A    between atoms: C_16  and  N_17
REMARK    4  A    between atoms: N_27  and  C_28
REMARK                            x       y       z     vdW  Elec       q    Type
REMARK                         _______ _______ _______ _____ _____    ______ ____
ROOT
ATOM      1  C   UNL     1       5.027   6.273 -10.985  0.00  0.00    +0.115 A 
ATOM      2  N   UNL     1       3.750   5.932 -11.223  0.00  0.00    -0.311 N 
ATOM      3  C   UNL     1       3.190   5.552 -10.049  0.00  0.00    +0.148 A 
ATOM      4  C   UNL     1       4.164   5.586  -9.061  0.00  0.00    +0.055 A 
ATOM      5  C   UNL     1       3.758   5.389  -7.767  0.00  0.00    +0.105 A 
ATOM      6  N   UNL     1       2.434   5.376  -7.479  0.00  0.00    -0.210 NA
ATOM      7  C   UNL     1       1.512   5.119  -8.438  0.00  0.00    +0.244 A 
ATOM      8  N   UNL     1       0.121   5.362  -8.199  0.00  0.00    -0.159 NA
ATOM      9  N   UNL     1       1.996   5.020  -9.699  0.00  0.00    -0.195 NA
ATOM     10  C   UNL     1       5.359   5.910  -9.689  0.00  0.00    +0.026 A 
ENDROOT
BRANCH   8  11
ATOM     11  C   UNL     1      -0.465   5.015  -6.947  0.00  0.00    +0.155 A 
ATOM     12  N   UNL     1       0.369   4.742  -5.916  0.00  0.00    -0.226 NA
ATOM     13  C   UNL     1      -0.029   5.000  -4.649  0.00  0.00    +0.115 A 
ATOM     14  C   UNL     1      -1.132   5.797  -4.367  0.00  0.00    +0.067 A 
ATOM     15  C   UNL     1      -2.109   5.828  -5.355  0.00  0.00    +0.019 A 
ATOM     16  C   UNL     1      -1.765   5.375  -6.622  0.00  0.00    +0.037 A 
BRANCH  14  17
ATOM     17  N   UNL     1      -1.087   6.809  -3.354  0.00  0.00    -0.303 N 
ATOM     18  C   UNL     1      -0.221   6.498  -2.218  0.00  0.00    +0.110 C 
ATOM     19  C   UNL     1      -1.100   5.752  -1.222  0.00  0.00    +0.110 C 
ATOM     20  N   UNL     1      -2.286   5.212  -1.881  0.00  0.00    -0.214 NA
ATOM     21  C   UNL     1      -3.169   6.282  -2.331  0.00  0.00    +0.110 C 
ATOM     22  C   UNL     1      -2.375   7.401  -2.995  0.00  0.00    +0.110 C 
ENDBRANCH  14  17
ENDBRANCH   8  11
BRANCH   1  25
ATOM     23  C   UNL     1       7.118   5.000 -12.672  0.00  0.00    +0.115 C 
ATOM     24  N   UNL     1       6.475   6.257 -13.021  0.00  0.00    -0.271 N 
ATOM     25  C   UNL     1       5.872   6.974 -11.949  0.00  0.00    +0.265 C 
ATOM     26  O   UNL     1       6.254   8.128 -11.625  0.00  0.00    -0.268 OA
ATOM     27  C   UNL     1       6.991   6.981 -14.164  0.00  0.00    +0.115 C 
ENDBRANCH   1  25
BRANCH   2  28
ATOM     28  C   UNL     1       2.969   6.374 -12.372  0.00  0.00    +0.087 C 
ATOM     29  C   UNL     1       2.919   5.314 -13.448  0.00  0.00    +0.023 C 
ATOM     30  C   UNL     1       1.705   5.758 -14.250  0.00  0.00    +0.002 C 
ATOM     31  C   UNL     1       0.699   6.215 -13.217  0.00  0.00    +0.002 C 
ATOM     32  C   UNL     1       1.531   6.620 -12.013  0.00  0.00    +0.023 C 
ENDBRANCH   2  28
TORSDOF 4
ENDMDL
MODEL 3
REMARK VINA RESULT:      -9.4      3.052     10.285
REMARK  Name = 
REMARK  4 active torsions:
REMARK  status: ('A' for Active; 'I' for Inactive)
REMARK    1  A    between atoms: C_4  and  C_6
REMARK    2  A    between atoms: N_12  and  C_13
REMARK    3  A    between atoms: C_16  and  N_17
REMARK    4  A    between atoms: N_27  and  C_28
REMARK                            x       y       z     vdW  Elec       q    Type
REMARK                         _______ _______ _______ _____ _____    ______ ____
ROOT
ATOM      1  C   UNL     1       4.020   5.893 -12.398  0.00  0.00    +0.115 A 
ATOM      2  N   UNL     1       4.185   6.464 -11.194  0.00  0.00    -0.311 N 
ATOM      3  C   UNL     1       3.093   6.183 -10.441  0.00  0.00    +0.148 A 
ATOM      4  C   UNL     1       2.187   5.476 -11.220  0.00  0.00    +0.055 A 
ATOM      5  C   UNL     1       1.085   4.958 -10.592  0.00  0.00    +0.105 A 
ATOM      6  N   UNL     1       1.021   4.971  -9.239  0.00  0.00    -0.210 NA
ATOM      7  C   UNL     1       1.768   5.837  -8.512  0.00  0.00    +0.244 A 
ATOM      8  N   UNL     1       1.901   5.677  -7.095  0.00  0.00    -0.159 NA
ATOM      9  N   UNL     1       2.663   6.568  -9.218  0.00  0.00    -0.195 NA
ATOM     10  C   UNL     1       2.722   5.417 -12.500  0.00  0.00    +0.026 A 
ENDROOT
BRANCH   8  11
ATOM     11  C   UNL     1       0.770   5.328  -6.301  0.00  0.00    +0.155 A 
ATOM     12  N   UNL     1       1.000   4.831  -5.062  0.00  0.00    -0.226 NA
ATOM     13  C   UNL     1       0.095   5.042  -4.080  0.00  0.00    +0.115 A 
ATOM     14  C   UNL     1      -0.919   5.987  -4.197  0.00  0.00    +0.067 A 
ATOM     15  C   UNL     1      -1.321   6.267  -5.497  0.00  0.00    +0.019 A 
ATOM     16  C   UNL     1      -0.485   5.872  -6.533  0.00  0.00    +0.037 A 
BRANCH  14  17
ATOM     17  N   UNL     1      -1.234   6.886  -3.127  0.00  0.00    -0.303 N 
ATOM     18  C   UNL     1      -0.707   6.490  -1.821  0.00  0.00    +0.110 C 
ATOM     19  C   UNL     1      -1.781   5.609  -1.195  0.00  0.00    +0.110 C 
ATOM     20  N   UNL     1      -2.690   5.095  -2.216  0.00  0.00    -0.214 NA
ATOM     21  C   UNL     1      -3.479   6.171  -2.804  0.00  0.00    +0.110 C 
ATOM     22  C   UNL     1      -2.607   7.385  -3.106  0.00  0.00    +0.110 C 
ENDBRANCH  14  17
ENDBRANCH   8  11
BRANCH   1  25
ATOM     23  C   UNL     1       3.875   6.828 -15.216  0.00  0.00    +0.115 C 
ATOM     24  N   UNL     1       5.132   6.628 -14.511  0.00  0.00    -0.271 N 
ATOM     25  C   UNL     1       5.089   5.758 -13.385  0.00  0.00    +0.265 C 
ATOM     26  O   UNL     1       5.764   4.698 -13.340  0.00  0.00    -0.268 OA
ATOM     27  C   UNL     1       6.356   6.751 -15.273  0.00  0.00    +0.115 C 
ENDBRANCH   1  25
BRANCH   2  28
ATOM     28  C   UNL     1       5.470   6.849 -10.622  0.00  0.00    +0.087 C 
ATOM     29  C   UNL     1       6.261   5.642 -10.175  0.00  0.00    +0.023 C 
ATOM     30  C   UNL     1       7.669   6.214 -10.111  0.00  0.00    +0.002 C 
ATOM     31  C   UNL     1       7.780   7.119 -11.317  0.00  0.00    +0.002 C 
ATOM     32  C   UNL     1       6.351   7.531 -11.630  0.00  0.00    +0.023 C 
ENDBRANCH   2  28
TORSDOF 4
ENDMDL
MODEL 4
REMARK VINA RESULT:      -9.3      1.852      3.358
REMARK  Name = 
REMARK  4 active torsions:
REMARK  status: ('A' for Active; 'I' for Inactive)
REMARK    1  A    between atoms: C_4  and  C_6
REMARK    2  A    between atoms: N_12  and  C_13
REMARK    3  A    between atoms: C_16  and  N_17
REMARK    4  A    between atoms: N_27  and  C_28
REMARK                            x       y       z     vdW  Elec       q    Type
REMARK                         _______ _______ _______ _____ _____    ______ ____
ROOT
ATOM      1  C   UNL     1      -0.776   6.245  -4.813  0.00  0.00    +0.115 A 
ATOM      2  N   UNL     1       0.490   5.945  -4.483  0.00  0.00    -0.311 N 
ATOM      3  C   UNL     1       1.130   5.532  -5.605  0.00  0.00    +0.148 A 
ATOM      4  C   UNL     1       0.219   5.503  -6.651  0.00  0.00    +0.055 A 
ATOM      5  C   UNL     1       0.708   5.265  -7.908  0.00  0.00    +0.105 A 
ATOM      6  N   UNL     1       2.047   5.273  -8.115  0.00  0.00    -0.210 NA
ATOM      7  C   UNL     1       2.913   5.077  -7.092  0.00  0.00    +0.244 A 
ATOM      8  N   UNL     1       4.311   5.344  -7.255  0.00  0.00    -0.159 NA
ATOM      9  N   UNL     1       2.355   5.016  -5.860  0.00  0.00    -0.195 NA
ATOM     10  C   UNL     1      -1.020   5.823  -6.110  0.00  0.00    +0.026 A 
ENDROOT
BRANCH   8  11
ATOM     11  C   UNL     1       4.981   4.962  -8.454  0.00  0.00    +0.155 A 
ATOM     12  N   UNL     1       4.223   4.735  -9.553  0.00  0.00    -0.226 NA
ATOM     13  C   UNL     1       4.741   4.967 -10.781  0.00  0.00    +0.115 A 
ATOM     14  C   UNL     1       5.907   5.700 -10.966  0.00  0.00    +0.067 A 
ATOM     15  C   UNL     1       6.797   5.678  -9.899  0.00  0.00    +0.019 A 
ATOM     16  C   UNL     1       6.321   5.248  -8.667  0.00  0.00    +0.037 A 
BRANCH  14  17
ATOM     17  N   UNL     1       6.006   6.711 -11.977  0.00  0.00    -0.303 N 
ATOM     18  C   UNL     1       5.187   6.470 -13.164  0.00  0.00    +0.110 C 
ATOM     19  C   UNL     1       6.063   5.654 -14.108  0.00  0.00    +0.110 C 
ATOM     20  N   UNL     1       7.159   5.021 -13.380  0.00  0.00    -0.214 NA
ATOM     21  C   UNL     1       8.096   6.017 -12.873  0.00  0.00    +0.110 C 
ATOM     22  C   UNL     1       7.356   7.197 -12.254  0.00  0.00    +0.110 C 
ENDBRANCH  14  17
ENDBRANCH   8  11
BRANCH   1  25
ATOM     23  C   UNL     1      -3.119   5.040  -3.434  0.00  0.00    +0.115 C 
ATOM     24  N   UNL     1      -2.458   6.249  -2.965  0.00  0.00    -0.271 N 
ATOM     25  C   UNL     1      -1.695   6.963  -3.931  0.00  0.00    +0.265 C 
ATOM     26  O   UNL     1      -1.974   8.145  -4.256  0.00  0.00    -0.268 OA
ATOM     27  C   UNL     1      -3.071   6.966  -1.866  0.00  0.00    +0.115 C 
ENDBRANCH   1  25
BRANCH   2  28
ATOM     28  C   UNL     1       1.189   6.450  -3.308  0.00  0.00    +0.087 C 
ATOM     29  C   UNL     1       1.506   5.341  -2.332  0.00  0.00    +0.023 C 
ATOM     30  C   UNL     1       2.616   5.976  -1.507  0.00  0.00    +0.002 C 
ATOM     31  C   UNL     1       3.463   6.732  -2.506  0.00  0.00    +0.002 C 
ATOM     32  C   UNL     1       2.525   7.042  -3.660  0.00  0.00    +0.023 C 
ENDBRANCH   2  28
TORSDOF 4
ENDMDL
MODEL 5
REMARK VINA RESULT:      -8.6      1.680      3.274
REMARK  Name = 
REMARK  4 active torsions:
REMARK  status: ('A' for Active; 'I' for Inactive)
REMARK    1  A    between atoms: C_4  and  C_6
REMARK    2  A    between atoms: N_12  and  C_13
REMARK    3  A    between atoms: C_16  and  N_17
REMARK    4  A    between atoms: N_27  and  C_28
REMARK                            x       y       z     vdW  Elec       q    Type
REMARK                         _______ _______ _______ _____ _____    ______ ____
ROOT
ATOM      1  C   UNL     1       0.357   5.669  -2.358  0.00  0.00    +0.115 A 
ATOM      2  N   UNL     1       1.686   5.737  -2.535  0.00  0.00    -0.311 N 
ATOM      3  C   UNL     1       1.957   5.406  -3.822  0.00  0.00    +0.148 A 
ATOM      4  C   UNL     1       0.770   5.050  -4.448  0.00  0.00    +0.055 A 
ATOM      5  C   UNL     1       0.809   4.836  -5.800  0.00  0.00    +0.105 A 
ATOM      6  N   UNL     1       1.922   5.171  -6.496  0.00  0.00    -0.210 NA
ATOM      7  C   UNL     1       3.121   5.297  -5.878  0.00  0.00    +0.244 A 
ATOM      8  N   UNL     1       4.232   5.900  -6.552  0.00  0.00    -0.159 NA
ATOM      9  N   UNL     1       3.093   5.203  -4.528  0.00  0.00    -0.195 NA
ATOM     10  C   UNL     1      -0.220   5.086  -3.475  0.00  0.00    +0.026 A 
ENDROOT
BRANCH   8  11
ATOM     11  C   UNL     1       4.492   5.600  -7.921  0.00  0.00    +0.155 A 
ATOM     12  N   UNL     1       3.977   6.432  -8.857  0.00  0.00    -0.226 NA
ATOM     13  C   UNL     1       4.623   6.596 -10.033  0.00  0.00    +0.115 A 
ATOM     14  C   UNL     1       5.937   6.181 -10.221  0.00  0.00    +0.067 A 
ATOM     15  C   UNL     1       6.344   5.122  -9.418  0.00  0.00    +0.019 A 
ATOM     16  C   UNL     1       5.569   4.816  -8.307  0.00  0.00    +0.037 A 
BRANCH  14  17
ATOM     17  N   UNL     1       6.902   7.015 -10.872  0.00  0.00    -0.303 N 
ATOM     18  C   UNL     1       6.352   7.898 -11.900  0.00  0.00    +0.110 C 
ATOM     19  C   UNL     1       6.396   7.096 -13.196  0.00  0.00    +0.110 C 
ATOM     20  N   UNL     1       6.506   5.667 -12.916  0.00  0.00    -0.214 NA
ATOM     21  C   UNL     1       7.796   5.349 -12.314  0.00  0.00    +0.110 C 
ATOM     22  C   UNL     1       8.158   6.363 -11.235  0.00  0.00    +0.110 C 
ENDBRANCH  14  17
ENDBRANCH   8  11
BRANCH   1  25
ATOM     23  C   UNL     1      -1.801   7.714  -2.420  0.00  0.00    +0.115 C 
ATOM     24  N   UNL     1      -1.626   6.778  -1.319  0.00  0.00    -0.271 N 
ATOM     25  C   UNL     1      -0.332   6.201  -1.184  0.00  0.00    +0.265 C 
ATOM     26  O   UNL     1       0.369   6.376  -0.155  0.00  0.00    -0.268 OA
ATOM     27  C   UNL     1      -2.453   6.962  -0.145  0.00  0.00    +0.115 C 
ENDBRANCH   1  25
BRANCH   2  28
ATOM     28  C   UNL     1       2.601   6.508  -1.702  0.00  0.00    +0.087 C 
ATOM     29  C   UNL     1       3.635   5.621  -1.048  0.00  0.00    +0.023 C 
ATOM     30  C   UNL     1       4.713   6.632  -0.688  0.00  0.00    +0.002 C 
ATOM     31  C   UNL     1       4.775   7.576  -1.868  0.00  0.00    +0.002 C 
ATOM     32  C   UNL     1       3.399   7.493  -2.508  0.00  0.00    +0.023 C 
ENDBRANCH   2  28
TORSDOF 4
ENDMDL
MODEL 6
REMARK VINA RESULT:      -8.4      3.101      9.541
REMARK  Name = 
REMARK  4 active torsions:
REMARK  status: ('A' for Active; 'I' for Inactive)
REMARK    1  A    between atoms: C_4  and  C_6
REMARK    2  A    between atoms: N_12  and  C_13
REMARK    3  A    between atoms: C_16  and  N_17
REMARK    4  A    between atoms: N_27  and  C_28
REMARK                            x       y       z     vdW  Elec       q    Type
REMARK                         _______ _______ _______ _____ _____    ______ ____
ROOT
ATOM      1  C   UNL     1       5.836   6.387 -11.680  0.00  0.00    +0.115 A 
ATOM      2  N   UNL     1       4.605   5.869 -11.543  0.00  0.00    -0.311 N 
ATOM      3  C   UNL     1       4.460   5.465 -10.256  0.00  0.00    +0.148 A 
ATOM      4  C   UNL     1       5.659   5.669  -9.589  0.00  0.00    +0.055 A 
ATOM      5  C   UNL     1       5.668   5.472  -8.233  0.00  0.00    +0.105 A 
ATOM      6  N   UNL     1       4.496   5.294  -7.577  0.00  0.00    -0.210 NA
ATOM      7  C   UNL     1       3.385   4.877  -8.232  0.00  0.00    +0.244 A 
ATOM      8  N   UNL     1       2.099   4.941  -7.605  0.00  0.00    -0.159 NA
ATOM      9  N   UNL     1       3.501   4.792  -9.578  0.00  0.00    -0.195 NA
ATOM     10  C   UNL     1       6.569   6.125 -10.534  0.00  0.00    +0.026 A 
ENDROOT
BRANCH   8  11
ATOM     11  C   UNL     1       1.947   4.570  -6.237  0.00  0.00    +0.155 A 
ATOM     12  N   UNL     1       3.060   4.533  -5.467  0.00  0.00    -0.226 NA
ATOM     13  C   UNL     1       2.966   4.791  -4.143  0.00  0.00    +0.115 A 
ATOM     14  C   UNL     1       1.836   5.375  -3.581  0.00  0.00    +0.067 A 
ATOM     15  C   UNL     1       0.649   5.151  -4.268  0.00  0.00    +0.019 A 
ATOM     16  C   UNL     1       0.734   4.691  -5.576  0.00  0.00    +0.037 A 
BRANCH  14  17
ATOM     17  N   UNL     1       1.938   6.440  -2.629  0.00  0.00    -0.303 N 
ATOM     18  C   UNL     1       3.272   6.628  -2.061  0.00  0.00    +0.110 C 
ATOM     19  C   UNL     1       3.326   5.727  -0.833  0.00  0.00    +0.110 C 
ATOM     20  N   UNL     1       2.294   4.696  -0.901  0.00  0.00    -0.214 NA
ATOM     21  C   UNL     1       0.962   5.281  -0.797  0.00  0.00    +0.110 C 
ATOM     22  C   UNL     1       0.845   6.530  -1.663  0.00  0.00    +0.110 C 
ENDBRANCH  14  17
ENDBRANCH   8  11
BRANCH   1  25
ATOM     23  C   UNL     1       7.338   5.284 -13.997  0.00  0.00    +0.115 C 
ATOM     24  N   UNL     1       6.529   6.492 -14.078  0.00  0.00    -0.271 N 
ATOM     25  C   UNL     1       6.266   7.155 -12.847  0.00  0.00    +0.265 C 
ATOM     26  O   UNL     1       6.652   8.332 -12.631  0.00  0.00    -0.268 OA
ATOM     27  C   UNL     1       6.590   7.259 -15.304  0.00  0.00    +0.115 C 
ENDBRANCH   1  25
BRANCH   2  28
ATOM     28  C   UNL     1       3.476   6.155 -12.420  0.00  0.00    +0.087 C 
ATOM     29  C   UNL     1       3.293   5.073 -13.458  0.00  0.00    +0.023 C 
ATOM     30  C   UNL     1       1.850   5.303 -13.881  0.00  0.00    +0.002 C 
ATOM     31  C   UNL     1       1.114   5.625 -12.601  0.00  0.00    +0.002 C 
ATOM     32  C   UNL     1       2.175   6.185 -11.669  0.00  0.00    +0.023 C 
ENDBRANCH   2  28
TORSDOF 4
ENDMDL
MODEL 7
REMARK VINA RESULT:      -8.3      2.923      4.682
REMARK  Name = 
REMARK  4 active torsions:
REMARK  status: ('A' for Active; 'I' for Inactive)
REMARK    1  A    between atoms: C_4  and  C_6
REMARK    2  A    between atoms: N_12  and  C_13
REMARK    3  A    between atoms: C_16  and  N_17
REMARK    4  A    between atoms: N_27  and  C_28
REMARK                            x       y       z     vdW  Elec       q    Type
REMARK                         _______ _______ _______ _____ _____    ______ ____
ROOT
ATOM      1  C   UNL     1       0.218   5.855  -1.294  0.00  0.00    +0.115 A 
ATOM      2  N   UNL     1       1.485   5.842  -1.737  0.00  0.00    -0.311 N 
ATOM      3  C   UNL     1       1.460   5.646  -3.079  0.00  0.00    +0.148 A 
ATOM      4  C   UNL     1       0.143   5.459  -3.475  0.00  0.00    +0.055 A 
ATOM      5  C   UNL     1      -0.109   5.405  -4.821  0.00  0.00    +0.105 A 
ATOM      6  N   UNL     1       0.870   5.735  -5.696  0.00  0.00    -0.210 NA
ATOM      7  C   UNL     1       2.175   5.694  -5.334  0.00  0.00    +0.244 A 
ATOM      8  N   UNL     1       3.183   6.287  -6.160  0.00  0.00    -0.159 NA
ATOM      9  N   UNL     1       2.407   5.443  -4.024  0.00  0.00    -0.195 NA
ATOM     10  C   UNL     1      -0.625   5.454  -2.318  0.00  0.00    +0.026 A 
ENDROOT
BRANCH   8  11
ATOM     11  C   UNL     1       3.134   6.133  -7.576  0.00  0.00    +0.155 A 
ATOM     12  N   UNL     1       2.852   4.902  -8.066  0.00  0.00    -0.226 NA
ATOM     13  C   UNL     1       2.214   4.785  -9.252  0.00  0.00    +0.115 A 
ATOM     14  C   UNL     1       1.575   5.861  -9.859  0.00  0.00    +0.067 A 
ATOM     15  C   UNL     1       2.086   7.112  -9.536  0.00  0.00    +0.019 A 
ATOM     16  C   UNL     1       2.912   7.208  -8.424  0.00  0.00    +0.037 A 
BRANCH  14  17
ATOM     17  N   UNL     1       0.268   5.732 -10.429  0.00  0.00    -0.303 N 
ATOM     18  C   UNL     1      -0.002   4.437 -11.053  0.00  0.00    +0.110 C 
ATOM     19  C   UNL     1       0.451   4.577 -12.501  0.00  0.00    +0.110 C 
ATOM     20  N   UNL     1       1.375   5.699 -12.649  0.00  0.00    -0.214 NA
ATOM     21  C   UNL     1       0.698   6.969 -12.414  0.00  0.00    +0.110 C 
ATOM     22  C   UNL     1      -0.206   6.887 -11.189  0.00  0.00    +0.110 C 
ENDBRANCH  14  17
ENDBRANCH   8  11
BRANCH   1  25
ATOM     23  C   UNL     1      -1.922   7.828  -0.689  0.00  0.00    +0.115 C 
ATOM     24  N   UNL     1      -1.464   6.835   0.272  0.00  0.00    -0.271 N 
ATOM     25  C   UNL     1      -0.167   6.294   0.046  0.00  0.00    +0.265 C 
ATOM     26  O   UNL     1       0.764   6.431   0.880  0.00  0.00    -0.268 OA
ATOM     27  C   UNL     1      -1.977   6.922   1.623  0.00  0.00    +0.115 C 
ENDBRANCH   1  25
BRANCH   2  28
ATOM     28  C   UNL     1       2.620   6.435  -1.040  0.00  0.00    +0.087 C 
ATOM     29  C   UNL     1       3.730   5.432  -0.833  0.00  0.00    +0.023 C 
ATOM     30  C   UNL     1       4.920   6.347  -0.585  0.00  0.00    +0.002 C 
ATOM     31  C   UNL     1       4.744   7.490  -1.559  0.00  0.00    +0.002 C 
ATOM     32  C   UNL     1       3.251   7.542  -1.837  0.00  0.00    +0.023 C 
ENDBRANCH   2  28
TORSDOF 4
ENDMDL
MODEL 8
REMARK VINA RESULT:      -8.2      2.590      9.628
REMARK  Name = 
REMARK  4 active torsions:
REMARK  status: ('A' for Active; 'I' for Inactive)
REMARK    1  A    between atoms: C_4  and  C_6
REMARK    2  A    between atoms: N_12  and  C_13
REMARK    3  A    between atoms: C_16  and  N_17
REMARK    4  A    between atoms: N_27  and  C_28
REMARK                            x       y       z     vdW  Elec       q    Type
REMARK                         _______ _______ _______ _____ _____    ______ ____
ROOT
ATOM      1  C   UNL     1       3.052   6.013  -7.861  0.00  0.00    +0.115 A 
ATOM      2  N   UNL     1       1.870   5.390  -7.738  0.00  0.00    -0.311 N 
ATOM      3  C   UNL     1       1.480   5.480  -6.442  0.00  0.00    +0.148 A 
ATOM      4  C   UNL     1       2.482   6.114  -5.721  0.00  0.00    +0.055 A 
ATOM      5  C   UNL     1       2.210   6.444  -4.419  0.00  0.00    +0.105 A 
ATOM      6  N   UNL     1       0.942   6.335  -3.955  0.00  0.00    -0.210 NA
ATOM      7  C   UNL     1       0.041   5.527  -4.565  0.00  0.00    +0.244 A 
ATOM      8  N   UNL     1      -1.352   5.610  -4.242  0.00  0.00    -0.159 NA
ATOM      9  N   UNL     1       0.456   4.963  -5.724  0.00  0.00    -0.195 NA
ATOM     10  C   UNL     1       3.536   6.325  -6.601  0.00  0.00    +0.026 A 
ENDROOT
BRANCH   8  11
ATOM     11  C   UNL     1      -1.769   5.759  -2.888  0.00  0.00    +0.155 A 
ATOM     12  N   UNL     1      -1.020   5.163  -1.929  0.00  0.00    -0.226 NA
ATOM     13  C   UNL     1      -0.958   5.709  -0.694  0.00  0.00    +0.115 A 
ATOM     14  C   UNL     1      -1.388   7.006  -0.435  0.00  0.00    +0.067 A 
ATOM     15  C   UNL     1      -2.374   7.485  -1.290  0.00  0.00    +0.019 A 
ATOM     16  C   UNL     1      -2.584   6.806  -2.483  0.00  0.00    +0.037 A 
BRANCH  14  17
ATOM     17  N   UNL     1      -0.613   7.909   0.362  0.00  0.00    -0.303 N 
ATOM     18  C   UNL     1       0.333   7.263   1.271  0.00  0.00    +0.110 C 
ATOM     19  C   UNL     1      -0.439   7.023   2.564  0.00  0.00    +0.110 C 
ATOM     20  N   UNL     1      -1.879   7.068   2.323  0.00  0.00    -0.214 NA
ATOM     21  C   UNL     1      -2.307   8.412   1.954  0.00  0.00    +0.110 C 
ATOM     22  C   UNL     1      -1.349   9.031   0.942  0.00  0.00    +0.110 C 
ENDBRANCH  14  17
ENDBRANCH   8  11
BRANCH   1  25
ATOM     23  C   UNL     1       5.740   5.119  -8.766  0.00  0.00    +0.115 C 
ATOM     24  N   UNL     1       4.686   5.518  -9.686  0.00  0.00    -0.271 N 
ATOM     25  C   UNL     1       3.662   6.347  -9.148  0.00  0.00    +0.265 C 
ATOM     26  O   UNL     1       3.447   7.506  -9.585  0.00  0.00    -0.268 OA
ATOM     27  C   UNL     1       5.024   5.621 -11.090  0.00  0.00    +0.115 C 
ENDBRANCH   1  25
BRANCH   2  28
ATOM     28  C   UNL     1       0.941   5.136  -8.833  0.00  0.00    +0.087 C 
ATOM     29  C   UNL     1       0.421   6.423  -9.428  0.00  0.00    +0.023 C 
ATOM     30  C   UNL     1      -0.072   5.948 -10.786  0.00  0.00    +0.002 C 
ATOM     31  C   UNL     1       0.965   4.952 -11.253  0.00  0.00    +0.002 C 
ATOM     32  C   UNL     1       1.605   4.427  -9.979  0.00  0.00    +0.023 C 
ENDBRANCH   2  28
TORSDOF 4
ENDMDL
MODEL 9
REMARK VINA RESULT:      -8.1      3.865      5.178
REMARK  Name = 
REMARK  4 active torsions:
REMARK  status: ('A' for Active; 'I' for Inactive)
REMARK    1  A    between atoms: C_4  and  C_6
REMARK    2  A    between atoms: N_12  and  C_13
REMARK    3  A    between atoms: C_16  and  N_17
REMARK    4  A    between atoms: N_27  and  C_28
REMARK                            x       y       z     vdW  Elec       q    Type
REMARK                         _______ _______ _______ _____ _____    ______ ____
ROOT
ATOM      1  C   UNL     1       3.282   5.703  -5.910  0.00  0.00    +0.115 A 
ATOM      2  N   UNL     1       2.115   5.912  -6.540  0.00  0.00    -0.311 N 
ATOM      3  C   UNL     1       2.370   6.046  -7.865  0.00  0.00    +0.148 A 
ATOM      4  C   UNL     1       3.743   5.992  -8.060  0.00  0.00    +0.055 A 
ATOM      5  C   UNL     1       4.195   5.948  -9.353  0.00  0.00    +0.105 A 
ATOM      6  N   UNL     1       3.312   5.753 -10.362  0.00  0.00    -0.210 NA
ATOM      7  C   UNL     1       1.995   6.029 -10.201  0.00  0.00    +0.244 A 
ATOM      8  N   UNL     1       1.032   5.582 -11.162  0.00  0.00    -0.159 NA
ATOM      9  N   UNL     1       1.621   6.369  -8.945  0.00  0.00    -0.195 NA
ATOM     10  C   UNL     1       4.323   5.913  -6.801  0.00  0.00    +0.026 A 
ENDROOT
BRANCH   8  11
ATOM     11  C   UNL     1       1.313   5.669 -12.556  0.00  0.00    +0.155 A 
ATOM     12  N   UNL     1       0.429   5.104 -13.413  0.00  0.00    -0.226 NA
ATOM     13  C   UNL     1       0.274   5.623 -14.652  0.00  0.00    +0.115 A 
ATOM     14  C   UNL     1       0.761   6.879 -14.995  0.00  0.00    +0.067 A 
ATOM     15  C   UNL     1       1.861   7.309 -14.262  0.00  0.00    +0.019 A 
ATOM     16  C   UNL     1       2.149   6.646 -13.076  0.00  0.00    +0.037 A 
BRANCH  14  17
ATOM     17  N   UNL     1      -0.032   7.815 -15.735  0.00  0.00    -0.303 N 
ATOM     18  C   UNL     1      -0.875   7.217 -16.769  0.00  0.00    +0.110 C 
ATOM     19  C   UNL     1      -0.017   7.178 -18.028  0.00  0.00    +0.110 C 
ATOM     20  N   UNL     1       1.400   7.289 -17.692  0.00  0.00    -0.214 NA
ATOM     21  C   UNL     1       1.707   8.608 -17.150  0.00  0.00    +0.110 C 
ATOM     22  C   UNL     1       0.652   9.042 -16.139  0.00  0.00    +0.110 C 
ENDBRANCH  14  17
ENDBRANCH   8  11
BRANCH   1  25
ATOM     23  C   UNL     1       3.574   7.496  -3.557  0.00  0.00    +0.115 C 
ATOM     24  N   UNL     1       3.040   6.146  -3.463  0.00  0.00    -0.271 N 
ATOM     25  C   UNL     1       3.385   5.259  -4.521  0.00  0.00    +0.265 C 
ATOM     26  O   UNL     1       4.041   4.205  -4.317  0.00  0.00    -0.268 OA
ATOM     27  C   UNL     1       2.785   5.616  -2.141  0.00  0.00    +0.115 C 
ENDBRANCH   1  25
BRANCH   2  28
ATOM     28  C   UNL     1       0.806   5.547  -6.014  0.00  0.00    +0.087 C 
ATOM     29  C   UNL     1       0.027   6.764  -5.571  0.00  0.00    +0.023 C 
ATOM     30  C   UNL     1      -1.394   6.223  -5.559  0.00  0.00    +0.002 C 
ATOM     31  C   UNL     1      -1.487   5.341  -6.783  0.00  0.00    +0.002 C 
ATOM     32  C   UNL     1      -0.060   4.902  -7.060  0.00  0.00    +0.023 C 
ENDBRANCH   2  28
TORSDOF 4
ENDMDL
