MODEL 1
REMARK VINA RESULT:      -8.2      0.000      0.000
REMARK  Name = 
REMARK  8 active torsions:
REMARK  status: ('A' for Active; 'I' for Inactive)
REMARK    1  A    between atoms: C_2  and  C_3
REMARK    2  A    between atoms: N_5  and  C_6
REMARK    3  A    between atoms: N_5  and  C_12
REMARK    4  A    between atoms: C_12  and  C_13
REMARK    5  A    between atoms: C_13  and  O_14
REMARK    6  A    between atoms: N_18  and  C_19
REMARK    7  A    between atoms: C_19  and  C_20
REMARK    8  A    between atoms: C_20  and  C_21
REMARK                            x       y       z     vdW  Elec       q    Type
REMARK                         _______ _______ _______ _____ _____    ______ ____
ROOT
ATOM      1  C   UNL     1       1.995   6.011  -8.047  0.00  0.00    +0.094 C 
ATOM      2  C   UNL     1       2.161   4.612  -8.575  0.00  0.00    +0.038 C 
ATOM      3  C   UNL     1       3.591   4.249  -8.859  0.00  0.00    +0.074 C 
ATOM      4  N   UNL     1       4.255   5.175  -9.742  0.00  0.00    -0.272 NA
ATOM      5  C   UNL     1       3.642   6.479  -9.776  0.00  0.00    +0.074 C 
ATOM      6  C   UNL     1       3.235   6.814  -8.356  0.00  0.00    +0.038 C 
ENDROOT
BRANCH   1   8
ATOM      7  C   UNL     1       2.668   6.225  -5.716  0.00  0.00    +0.229 C 
ATOM      8  N   UNL     1       1.606   6.065  -6.665  0.00  0.00    -0.259 N 
ATOM      9  O   UNL     1       3.233   7.338  -5.699  0.00  0.00    -0.275 OA
BRANCH   8  10
ATOM     10  C   UNL     1       0.274   6.140  -6.205  0.00  0.00    +0.054 A 
ATOM     11  C   UNL     1      -0.669   5.168  -6.466  0.00  0.00    +0.015 A 
ATOM     12  C   UNL     1      -2.016   5.473  -6.323  0.00  0.00    +0.001 A 
ATOM     13  C   UNL     1      -2.402   6.591  -5.599  0.00  0.00    +0.000 A 
ATOM     14  C   UNL     1      -1.419   7.282  -4.901  0.00  0.00    +0.001 A 
ATOM     15  C   UNL     1      -0.137   7.175  -5.386  0.00  0.00    +0.015 A 
ENDBRANCH   8  10
BRANCH   7  17
ATOM     16  C   UNL     1       4.325   4.855  -4.626  0.00  0.00    +0.010 C 
ATOM     17  C   UNL     1       2.858   5.173  -4.687  0.00  0.00    +0.086 C 
ENDBRANCH   7  17
ENDBRANCH   1   8
BRANCH   4  18
ATOM     18  C   UNL     1       5.606   5.358  -9.216  0.00  0.00    +0.077 C 
BRANCH  18  19
ATOM     19  C   UNL     1       6.312   6.470  -9.950  0.00  0.00    +0.050 C 
BRANCH  19  20
ATOM     20  C   UNL     1       6.789   5.935 -11.260  0.00  0.00    +0.009 A 
ATOM     21  S   UNL     1       6.010   5.807 -12.783  0.00  0.00    -0.091 S 
ATOM     22  C   UNL     1       7.382   5.481 -13.763  0.00  0.00    +0.035 A 
ATOM     23  C   UNL     1       8.401   5.767 -12.862  0.00  0.00    +0.007 A 
ATOM     24  C   UNL     1       8.047   5.439 -11.583  0.00  0.00    +0.003 A 
ENDBRANCH  19  20
ENDBRANCH  18  19
ENDBRANCH   4  18
BRANCH   1  25
ATOM     25  C   UNL     1       0.864   6.643  -8.853  0.00  0.00    +0.161 C 
BRANCH  25  26
ATOM     26  O   UNL     1       0.328   5.708  -9.726  0.00  0.00    -0.349 OA
ATOM     27  C   UNL     1      -0.094   6.366 -10.874  0.00  0.00    +0.174 C 
ENDBRANCH  25  26
ENDBRANCH   1  25
TORSDOF 8
ENDMDL
MODEL 2
REMARK VINA RESULT:      -8.0      1.291      3.148
REMARK  Name = 
REMARK  8 active torsions:
REMARK  status: ('A' for Active; 'I' for Inactive)
REMARK    1  A    between atoms: C_2  and  C_3
REMARK    2  A    between atoms: N_5  and  C_6
REMARK    3  A    between atoms: N_5  and  C_12
REMARK    4  A    between atoms: C_12  and  C_13
REMARK    5  A    between atoms: C_13  and  O_14
REMARK    6  A    between atoms: N_18  and  C_19
REMARK    7  A    between atoms: C_19  and  C_20
REMARK    8  A    between atoms: C_20  and  C_21
REMARK                            x       y       z     vdW  Elec       q    Type
REMARK                         _______ _______ _______ _____ _____    ______ ____
ROOT
ATOM      1  C   UNL     1       2.345   5.656  -7.809  0.00  0.00    +0.094 C 
ATOM      2  C   UNL     1       2.651   4.319  -8.426  0.00  0.00    +0.038 C 
ATOM      3  C   UNL     1       4.045   4.224  -8.981  0.00  0.00    +0.074 C 
ATOM      4  N   UNL     1       4.362   5.268  -9.921  0.00  0.00    -0.272 NA
ATOM      5  C   UNL     1       3.536   6.441  -9.781  0.00  0.00    +0.074 C 
ATOM      6  C   UNL     1       3.347   6.674  -8.295  0.00  0.00    +0.038 C 
ENDROOT
BRANCH   1   8
ATOM      7  C   UNL     1       0.989   5.080  -5.870  0.00  0.00    +0.229 C 
ATOM      8  N   UNL     1       2.217   5.615  -6.378  0.00  0.00    -0.259 N 
ATOM      9  O   UNL     1       0.816   3.853  -6.015  0.00  0.00    -0.275 OA
BRANCH   8  10
ATOM     10  C   UNL     1       3.258   5.899  -5.467  0.00  0.00    +0.054 A 
ATOM     11  C   UNL     1       4.070   4.925  -4.925  0.00  0.00    +0.015 A 
ATOM     12  C   UNL     1       4.798   5.210  -3.778  0.00  0.00    +0.001 A 
ATOM     13  C   UNL     1       4.994   6.526  -3.389  0.00  0.00    +0.000 A 
ATOM     14  C   UNL     1       4.585   7.527  -4.261  0.00  0.00    +0.001 A 
ATOM     15  C   UNL     1       3.570   7.203  -5.131  0.00  0.00    +0.015 A 
ENDBRANCH   8  10
BRANCH   7  17
ATOM     16  C   UNL     1      -1.288   5.739  -5.430  0.00  0.00    +0.010 C 
ATOM     17  C   UNL     1       0.141   5.951  -5.018  0.00  0.00    +0.086 C 
ENDBRANCH   7  17
ENDBRANCH   1   8
BRANCH   4  18
ATOM     18  C   UNL     1       5.734   5.683  -9.639  0.00  0.00    +0.077 C 
BRANCH  18  19
ATOM     19  C   UNL     1       6.150   6.797 -10.566  0.00  0.00    +0.050 C 
BRANCH  19  20
ATOM     20  C   UNL     1       6.502   6.198 -11.888  0.00  0.00    +0.009 A 
ATOM     21  S   UNL     1       5.638   6.132 -13.367  0.00  0.00    -0.091 S 
ATOM     22  C   UNL     1       6.917   5.650 -14.407  0.00  0.00    +0.035 A 
ATOM     23  C   UNL     1       8.004   5.840 -13.563  0.00  0.00    +0.007 A 
ATOM     24  C   UNL     1       7.684   5.569 -12.263  0.00  0.00    +0.003 A 
ENDBRANCH  19  20
ENDBRANCH  18  19
ENDBRANCH   4  18
BRANCH   1  25
ATOM     25  C   UNL     1       0.992   6.087  -8.366  0.00  0.00    +0.161 C 
BRANCH  25  26
ATOM     26  O   UNL     1       0.560   5.171  -9.313  0.00  0.00    -0.349 OA
ATOM     27  C   UNL     1      -0.031   5.864 -10.362  0.00  0.00    +0.174 C 
ENDBRANCH  25  26
ENDBRANCH   1  25
TORSDOF 8
ENDMDL
MODEL 3
REMARK VINA RESULT:      -7.7      3.185      7.705
REMARK  Name = 
REMARK  8 active torsions:
REMARK  status: ('A' for Active; 'I' for Inactive)
REMARK    1  A    between atoms: C_2  and  C_3
REMARK    2  A    between atoms: N_5  and  C_6
REMARK    3  A    between atoms: N_5  and  C_12
REMARK    4  A    between atoms: C_12  and  C_13
REMARK    5  A    between atoms: C_13  and  O_14
REMARK    6  A    between atoms: N_18  and  C_19
REMARK    7  A    between atoms: C_19  and  C_20
REMARK    8  A    between atoms: C_20  and  C_21
REMARK                            x       y       z     vdW  Elec       q    Type
REMARK                         _______ _______ _______ _____ _____    ______ ____
ROOT
ATOM      1  C   UNL     1       2.346   5.771  -7.348  0.00  0.00    +0.094 C 
ATOM      2  C   UNL     1       1.969   4.528  -6.589  0.00  0.00    +0.038 C 
ATOM      3  C   UNL     1       0.558   4.552  -6.071  0.00  0.00    +0.074 C 
ATOM      4  N   UNL     1       0.260   5.711  -5.269  0.00  0.00    -0.272 NA
ATOM      5  C   UNL     1       1.137   6.828  -5.519  0.00  0.00    +0.074 C 
ATOM      6  C   UNL     1       1.374   6.876  -7.015  0.00  0.00    +0.038 C 
ENDROOT
BRANCH   1   8
ATOM      7  C   UNL     1       3.785   5.049  -9.176  0.00  0.00    +0.229 C 
ATOM      8  N   UNL     1       2.511   5.557  -8.759  0.00  0.00    -0.259 N 
ATOM      9  O   UNL     1       4.036   3.866  -8.871  0.00  0.00    -0.275 OA
BRANCH   8  10
ATOM     10  C   UNL     1       1.476   5.649  -9.714  0.00  0.00    +0.054 A 
ATOM     11  C   UNL     1       0.763   4.555 -10.158  0.00  0.00    +0.015 A 
ATOM     12  C   UNL     1       0.045   4.648 -11.343  0.00  0.00    +0.001 A 
ATOM     13  C   UNL     1      -0.249   5.892 -11.880  0.00  0.00    +0.000 A 
ATOM     14  C   UNL     1       0.052   7.014 -11.119  0.00  0.00    +0.001 A 
ATOM     15  C   UNL     1       1.065   6.876 -10.201  0.00  0.00    +0.015 A 
ENDBRANCH   8  10
BRANCH   7  17
ATOM     16  C   UNL     1       6.028   5.762  -9.693  0.00  0.00    +0.010 C 
ATOM     17  C   UNL     1       4.592   5.861 -10.120  0.00  0.00    +0.086 C 
ENDBRANCH   7  17
ENDBRANCH   1   8
BRANCH   4  18
ATOM     18  C   UNL     1      -1.087   6.141  -5.641  0.00  0.00    +0.077 C 
BRANCH  18  19
ATOM     19  C   UNL     1      -1.486   7.364  -4.855  0.00  0.00    +0.050 C 
BRANCH  19  20
ATOM     20  C   UNL     1      -1.955   6.922  -3.508  0.00  0.00    +0.009 A 
ATOM     21  S   UNL     1      -2.445   5.384  -2.928  0.00  0.00    -0.091 S 
ATOM     22  C   UNL     1      -2.413   5.708  -1.241  0.00  0.00    +0.035 A 
ATOM     23  C   UNL     1      -1.752   6.930  -1.239  0.00  0.00    +0.007 A 
ATOM     24  C   UNL     1      -2.064   7.672  -2.343  0.00  0.00    +0.003 A 
ENDBRANCH  19  20
ENDBRANCH  18  19
ENDBRANCH   4  18
BRANCH   1  25
ATOM     25  C   UNL     1       3.700   6.213  -6.802  0.00  0.00    +0.161 C 
BRANCH  25  26
ATOM     26  O   UNL     1       4.101   5.358  -5.786  0.00  0.00    -0.349 OA
ATOM     27  C   UNL     1       4.705   6.111  -4.788  0.00  0.00    +0.174 C 
ENDBRANCH  25  26
ENDBRANCH   1  25
TORSDOF 8
ENDMDL
MODEL 4
REMARK VINA RESULT:      -7.7      3.337      6.928
REMARK  Name = 
REMARK  8 active torsions:
REMARK  status: ('A' for Active; 'I' for Inactive)
REMARK    1  A    between atoms: C_2  and  C_3
REMARK    2  A    between atoms: N_5  and  C_6
REMARK    3  A    between atoms: N_5  and  C_12
REMARK    4  A    between atoms: C_12  and  C_13
REMARK    5  A    between atoms: C_13  and  O_14
REMARK    6  A    between atoms: N_18  and  C_19
REMARK    7  A    between atoms: C_19  and  C_20
REMARK    8  A    between atoms: C_20  and  C_21
REMARK                            x       y       z     vdW  Elec       q    Type
REMARK                         _______ _______ _______ _____ _____    ______ ____
ROOT
ATOM      1  C   UNL     1       2.693   5.911  -6.910  0.00  0.00    +0.094 C 
ATOM      2  C   UNL     1       3.023   4.597  -6.257  0.00  0.00    +0.038 C 
ATOM      3  C   UNL     1       3.124   4.685  -4.760  0.00  0.00    +0.074 C 
ATOM      4  N   UNL     1       4.049   5.691  -4.304  0.00  0.00    -0.272 NA
ATOM      5  C   UNL     1       4.304   6.724  -5.276  0.00  0.00    +0.074 C 
ATOM      6  C   UNL     1       2.981   7.036  -5.946  0.00  0.00    +0.038 C 
ENDROOT
BRANCH   1   8
ATOM      7  C   UNL     1       1.277   5.746  -8.885  0.00  0.00    +0.229 C 
ATOM      8  N   UNL     1       1.371   5.961  -7.471  0.00  0.00    -0.259 N 
ATOM      9  O   UNL     1       1.507   4.588  -9.286  0.00  0.00    -0.275 OA
BRANCH   8  10
ATOM     10  C   UNL     1       0.179   6.034  -6.719  0.00  0.00    +0.054 A 
ATOM     11  C   UNL     1      -0.890   5.186  -6.919  0.00  0.00    +0.015 A 
ATOM     12  C   UNL     1      -2.140   5.542  -6.432  0.00  0.00    +0.001 A 
ATOM     13  C   UNL     1      -2.252   6.531  -5.465  0.00  0.00    +0.000 A 
ATOM     14  C   UNL     1      -1.081   7.020  -4.900  0.00  0.00    +0.001 A 
ATOM     15  C   UNL     1       0.054   6.925  -5.670  0.00  0.00    +0.015 A 
ENDBRANCH   8  10
BRANCH   7  17
ATOM     16  C   UNL     1      -0.103   6.171 -10.814  0.00  0.00    +0.010 C 
ATOM     17  C   UNL     1       0.696   6.824  -9.723  0.00  0.00    +0.086 C 
ENDBRANCH   7  17
ENDBRANCH   1   8
BRANCH   4  18
ATOM     18  C   UNL     1       3.425   6.341  -3.153  0.00  0.00    +0.077 C 
BRANCH  18  19
ATOM     19  C   UNL     1       3.283   5.368  -2.010  0.00  0.00    +0.050 C 
BRANCH  19  20
ATOM     20  C   UNL     1       1.968   5.616  -1.347  0.00  0.00    +0.009 A 
ATOM     21  S   UNL     1       1.433   6.891  -0.332  0.00  0.00    -0.091 S 
ATOM     22  C   UNL     1      -0.257   6.587  -0.382  0.00  0.00    +0.035 A 
ATOM     23  C   UNL     1      -0.309   5.664  -1.419  0.00  0.00    +0.007 A 
ATOM     24  C   UNL     1       0.800   4.866  -1.438  0.00  0.00    +0.003 A 
ENDBRANCH  19  20
ENDBRANCH  18  19
ENDBRANCH   4  18
BRANCH   1  25
ATOM     25  C   UNL     1       3.675   6.076  -8.066  0.00  0.00    +0.161 C 
BRANCH  25  26
ATOM     26  O   UNL     1       4.524   4.981  -8.122  0.00  0.00    -0.349 OA
ATOM     27  C   UNL     1       5.704   5.369  -8.743  0.00  0.00    +0.174 C 
ENDBRANCH  25  26
ENDBRANCH   1  25
TORSDOF 8
ENDMDL
MODEL 5
REMARK VINA RESULT:      -7.7      3.068      8.167
REMARK  Name = 
REMARK  8 active torsions:
REMARK  status: ('A' for Active; 'I' for Inactive)
REMARK    1  A    between atoms: C_2  and  C_3
REMARK    2  A    between atoms: N_5  and  C_6
REMARK    3  A    between atoms: N_5  and  C_12
REMARK    4  A    between atoms: C_12  and  C_13
REMARK    5  A    between atoms: C_13  and  O_14
REMARK    6  A    between atoms: N_18  and  C_19
REMARK    7  A    between atoms: C_19  and  C_20
REMARK    8  A    between atoms: C_20  and  C_21
REMARK                            x       y       z     vdW  Elec       q    Type
REMARK                         _______ _______ _______ _____ _____    ______ ____
ROOT
ATOM      1  C   UNL     1       2.545   6.063  -7.671  0.00  0.00    +0.094 C 
ATOM      2  C   UNL     1       2.057   4.726  -7.186  0.00  0.00    +0.038 C 
ATOM      3  C   UNL     1       0.596   4.717  -6.834  0.00  0.00    +0.074 C 
ATOM      4  N   UNL     1       0.228   5.733  -5.882  0.00  0.00    -0.272 NA
ATOM      5  C   UNL     1       1.149   6.841  -5.835  0.00  0.00    +0.074 C 
ATOM      6  C   UNL     1       1.562   7.133  -7.263  0.00  0.00    +0.038 C 
ENDROOT
BRANCH   1   8
ATOM      7  C   UNL     1       1.762   6.154  -9.975  0.00  0.00    +0.229 C 
ATOM      8  N   UNL     1       2.871   6.086  -9.070  0.00  0.00    -0.259 N 
ATOM      9  O   UNL     1       1.137   7.233 -10.005  0.00  0.00    -0.275 OA
BRANCH   8  10
ATOM     10  C   UNL     1       4.177   6.217  -9.591  0.00  0.00    +0.054 A 
ATOM     11  C   UNL     1       5.171   5.286  -9.374  0.00  0.00    +0.015 A 
ATOM     12  C   UNL     1       6.495   5.647  -9.579  0.00  0.00    +0.001 A 
ATOM     13  C   UNL     1       6.800   6.779 -10.320  0.00  0.00    +0.000 A 
ATOM     14  C   UNL     1       5.757   7.426 -10.972  0.00  0.00    +0.001 A 
ATOM     15  C   UNL     1       4.505   7.267 -10.428  0.00  0.00    +0.015 A 
ENDBRANCH   8  10
BRANCH   7  17
ATOM     16  C   UNL     1       0.212   4.486 -10.764  0.00  0.00    +0.010 C 
ATOM     17  C   UNL     1       1.588   5.056 -10.958  0.00  0.00    +0.086 C 
ENDBRANCH   7  17
ENDBRANCH   1   8
BRANCH   4  18
ATOM     18  C   UNL     1      -1.057   6.273  -6.323  0.00  0.00    +0.077 C 
BRANCH  18  19
ATOM     19  C   UNL     1      -2.194   5.502  -5.704  0.00  0.00    +0.050 C 
BRANCH  19  20
ATOM     20  C   UNL     1      -2.501   6.110  -4.375  0.00  0.00    +0.009 A 
ATOM     21  S   UNL     1      -3.013   5.405  -2.897  0.00  0.00    -0.091 S 
ATOM     22  C   UNL     1      -2.724   6.735  -1.848  0.00  0.00    +0.035 A 
ATOM     23  C   UNL     1      -1.984   7.555  -2.691  0.00  0.00    +0.007 A 
ATOM     24  C   UNL     1      -2.394   7.442  -3.989  0.00  0.00    +0.003 A 
ENDBRANCH  19  20
ENDBRANCH  18  19
ENDBRANCH   4  18
BRANCH   1  25
ATOM     25  C   UNL     1       3.834   6.353  -6.907  0.00  0.00    +0.161 C 
BRANCH  25  26
ATOM     26  O   UNL     1       4.127   5.295  -6.060  0.00  0.00    -0.349 OA
ATOM     27  C   UNL     1       4.636   5.808  -4.873  0.00  0.00    +0.174 C 
ENDBRANCH  25  26
ENDBRANCH   1  25
TORSDOF 8
ENDMDL
MODEL 6
REMARK VINA RESULT:      -7.6      1.679      2.530
REMARK  Name = 
REMARK  8 active torsions:
REMARK  status: ('A' for Active; 'I' for Inactive)
REMARK    1  A    between atoms: C_2  and  C_3
REMARK    2  A    between atoms: N_5  and  C_6
REMARK    3  A    between atoms: N_5  and  C_12
REMARK    4  A    between atoms: C_12  and  C_13
REMARK    5  A    between atoms: C_13  and  O_14
REMARK    6  A    between atoms: N_18  and  C_19
REMARK    7  A    between atoms: C_19  and  C_20
REMARK    8  A    between atoms: C_20  and  C_21
REMARK                            x       y       z     vdW  Elec       q    Type
REMARK                         _______ _______ _______ _____ _____    ______ ____
ROOT
ATOM      1  C   UNL     1       0.779   5.235  -6.135  0.00  0.00    +0.094 C 
ATOM      2  C   UNL     1       1.680   4.042  -6.300  0.00  0.00    +0.038 C 
ATOM      3  C   UNL     1       2.858   4.305  -7.197  0.00  0.00    +0.074 C 
ATOM      4  N   UNL     1       2.491   4.810  -8.495  0.00  0.00    -0.272 NA
ATOM      5  C   UNL     1       1.190   5.432  -8.526  0.00  0.00    +0.074 C 
ATOM      6  C   UNL     1       1.049   6.224  -7.242  0.00  0.00    +0.038 C 
ENDROOT
BRANCH   1   8
ATOM      7  C   UNL     1       2.123   6.201  -4.348  0.00  0.00    +0.229 C 
ATOM      8  N   UNL     1       0.826   5.816  -4.822  0.00  0.00    -0.259 N 
ATOM      9  O   UNL     1       2.648   7.185  -4.906  0.00  0.00    -0.275 OA
BRANCH   8  10
ATOM     10  C   UNL     1      -0.306   6.181  -4.061  0.00  0.00    +0.054 A 
ATOM     11  C   UNL     1      -0.842   5.377  -3.077  0.00  0.00    +0.015 A 
ATOM     12  C   UNL     1      -2.141   5.609  -2.645  0.00  0.00    +0.001 A 
ATOM     13  C   UNL     1      -2.759   6.820  -2.920  0.00  0.00    +0.000 A 
ATOM     14  C   UNL     1      -1.987   7.827  -3.486  0.00  0.00    +0.001 A 
ATOM     15  C   UNL     1      -0.894   7.422  -4.215  0.00  0.00    +0.015 A 
ENDBRANCH   8  10
BRANCH   7  17
ATOM     16  C   UNL     1       3.954   4.935  -3.423  0.00  0.00    +0.010 C 
ATOM     17  C   UNL     1       2.632   5.573  -3.103  0.00  0.00    +0.086 C 
ENDBRANCH   7  17
ENDBRANCH   1   8
BRANCH   4  18
ATOM     18  C   UNL     1       3.462   5.850  -8.829  0.00  0.00    +0.077 C 
BRANCH  18  19
ATOM     19  C   UNL     1       4.857   5.405  -8.469  0.00  0.00    +0.050 C 
BRANCH  19  20
ATOM     20  C   UNL     1       5.770   5.775  -9.591  0.00  0.00    +0.009 A 
ATOM     21  S   UNL     1       5.444   6.287 -11.195  0.00  0.00    -0.091 S 
ATOM     22  C   UNL     1       7.005   6.867 -11.617  0.00  0.00    +0.035 A 
ATOM     23  C   UNL     1       7.612   6.870 -10.367  0.00  0.00    +0.007 A 
ATOM     24  C   UNL     1       7.158   5.844  -9.587  0.00  0.00    +0.003 A 
ENDBRANCH  19  20
ENDBRANCH  18  19
ENDBRANCH   4  18
BRANCH   1  25
ATOM     25  C   UNL     1      -0.644   4.731  -6.349  0.00  0.00    +0.161 C 
BRANCH  25  26
ATOM     26  O   UNL     1      -1.373   5.667  -7.067  0.00  0.00    -0.349 OA
ATOM     27  C   UNL     1      -2.687   5.644  -6.616  0.00  0.00    +0.174 C 
ENDBRANCH  25  26
ENDBRANCH   1  25
TORSDOF 8
ENDMDL
MODEL 7
REMARK VINA RESULT:      -7.5      3.507      7.780
REMARK  Name = 
REMARK  8 active torsions:
REMARK  status: ('A' for Active; 'I' for Inactive)
REMARK    1  A    between atoms: C_2  and  C_3
REMARK    2  A    between atoms: N_5  and  C_6
REMARK    3  A    between atoms: N_5  and  C_12
REMARK    4  A    between atoms: C_12  and  C_13
REMARK    5  A    between atoms: C_13  and  O_14
REMARK    6  A    between atoms: N_18  and  C_19
REMARK    7  A    between atoms: C_19  and  C_20
REMARK    8  A    between atoms: C_20  and  C_21
REMARK                            x       y       z     vdW  Elec       q    Type
REMARK                         _______ _______ _______ _____ _____    ______ ____
ROOT
ATOM      1  C   UNL     1       1.683   5.702  -6.971  0.00  0.00    +0.094 C 
ATOM      2  C   UNL     1       0.960   6.992  -6.699  0.00  0.00    +0.038 C 
ATOM      3  C   UNL     1       0.183   6.979  -5.412  0.00  0.00    +0.074 C 
ATOM      4  N   UNL     1      -0.745   5.882  -5.313  0.00  0.00    -0.272 NA
ATOM      5  C   UNL     1      -0.415   4.768  -6.167  0.00  0.00    +0.074 C 
ATOM      6  C   UNL     1       1.091   4.606  -6.120  0.00  0.00    +0.038 C 
ENDROOT
BRANCH   1   8
ATOM      7  C   UNL     1       3.837   5.895  -8.093  0.00  0.00    +0.229 C 
ATOM      8  N   UNL     1       3.112   5.806  -6.859  0.00  0.00    -0.259 N 
ATOM      9  O   UNL     1       3.713   6.959  -8.732  0.00  0.00    -0.275 OA
BRANCH   8  10
ATOM     10  C   UNL     1       3.814   5.994  -5.649  0.00  0.00    +0.054 A 
ATOM     11  C   UNL     1       4.219   4.950  -4.843  0.00  0.00    +0.015 A 
ATOM     12  C   UNL     1       4.552   5.204  -3.520  0.00  0.00    +0.001 A 
ATOM     13  C   UNL     1       4.823   6.500  -3.109  0.00  0.00    +0.000 A 
ATOM     14  C   UNL     1       4.908   7.485  -4.085  0.00  0.00    +0.001 A 
ATOM     15  C   UNL     1       4.209   7.256  -5.246  0.00  0.00    +0.015 A 
ENDBRANCH   8  10
BRANCH   7  17
ATOM     16  C   UNL     1       6.034   5.521  -9.010  0.00  0.00    +0.010 C 
ATOM     17  C   UNL     1       4.841   4.846  -8.396  0.00  0.00    +0.086 C 
ENDBRANCH   7  17
ENDBRANCH   1   8
BRANCH   4  18
ATOM     18  C   UNL     1      -0.669   5.394  -3.937  0.00  0.00    +0.077 C 
BRANCH  18  19
ATOM     19  C   UNL     1       0.249   6.265  -3.118  0.00  0.00    +0.050 C 
BRANCH  19  20
ATOM     20  C   UNL     1      -0.271   6.306  -1.719  0.00  0.00    +0.009 A 
ATOM     21  S   UNL     1       0.490   6.721  -0.239  0.00  0.00    -0.091 S 
ATOM     22  C   UNL     1      -0.907   6.886   0.747  0.00  0.00    +0.035 A 
ATOM     23  C   UNL     1      -1.898   6.871  -0.227  0.00  0.00    +0.007 A 
ATOM     24  C   UNL     1      -1.564   6.056  -1.271  0.00  0.00    +0.003 A 
ENDBRANCH  19  20
ENDBRANCH  18  19
ENDBRANCH   4  18
BRANCH   1  25
ATOM     25  C   UNL     1       1.374   5.333  -8.419  0.00  0.00    +0.161 C 
BRANCH  25  26
ATOM     26  O   UNL     1       0.505   6.264  -8.966  0.00  0.00    -0.349 OA
ATOM     27  C   UNL     1       0.586   6.184 -10.351  0.00  0.00    +0.174 C 
ENDBRANCH  25  26
ENDBRANCH   1  25
TORSDOF 8
ENDMDL
MODEL 8
REMARK VINA RESULT:      -7.5      2.875      7.188
REMARK  Name = 
REMARK  8 active torsions:
REMARK  status: ('A' for Active; 'I' for Inactive)
REMARK    1  A    between atoms: C_2  and  C_3
REMARK    2  A    between atoms: N_5  and  C_6
REMARK    3  A    between atoms: N_5  and  C_12
REMARK    4  A    between atoms: C_12  and  C_13
REMARK    5  A    between atoms: C_13  and  O_14
REMARK    6  A    between atoms: N_18  and  C_19
REMARK    7  A    between atoms: C_19  and  C_20
REMARK    8  A    between atoms: C_20  and  C_21
REMARK                            x       y       z     vdW  Elec       q    Type
REMARK                         _______ _______ _______ _____ _____    ______ ____
ROOT
ATOM      1  C   UNL     1       2.031   5.742  -7.840  0.00  0.00    +0.094 C 
ATOM      2  C   UNL     1       2.070   6.961  -6.961  0.00  0.00    +0.038 C 
ATOM      3  C   UNL     1       3.108   6.882  -5.877  0.00  0.00    +0.074 C 
ATOM      4  N   UNL     1       2.993   5.704  -5.055  0.00  0.00    -0.272 NA
ATOM      5  C   UNL     1       2.285   4.622  -5.694  0.00  0.00    +0.074 C 
ATOM      6  C   UNL     1       2.728   4.599  -7.143  0.00  0.00    +0.038 C 
ENDROOT
BRANCH   1   8
ATOM      7  C   UNL     1       1.506   6.159 -10.181  0.00  0.00    +0.229 C 
ATOM      8  N   UNL     1       2.509   5.976  -9.174  0.00  0.00    -0.259 N 
ATOM      9  O   UNL     1       0.853   7.221 -10.126  0.00  0.00    -0.275 OA
BRANCH   8  10
ATOM     10  C   UNL     1       3.859   6.203  -9.519  0.00  0.00    +0.054 A 
ATOM     11  C   UNL     1       4.267   7.254 -10.314  0.00  0.00    +0.015 A 
ATOM     12  C   UNL     1       5.517   7.203 -10.917  0.00  0.00    +0.001 A 
ATOM     13  C   UNL     1       6.474   6.311 -10.457  0.00  0.00    +0.000 A 
ATOM     14  C   UNL     1       6.196   5.605  -9.293  0.00  0.00    +0.001 A 
ATOM     15  C   UNL     1       4.867   5.412  -8.999  0.00  0.00    +0.015 A 
ENDBRANCH   8  10
BRANCH   7  17
ATOM     16  C   UNL     1       0.056   4.762 -11.505  0.00  0.00    +0.010 C 
ATOM     17  C   UNL     1       1.476   5.216 -11.326  0.00  0.00    +0.086 C 
ENDBRANCH   7  17
ENDBRANCH   1   8
BRANCH   4  18
ATOM     18  C   UNL     1       4.353   5.231  -4.809  0.00  0.00    +0.077 C 
BRANCH  18  19
ATOM     19  C   UNL     1       5.067   6.150  -3.852  0.00  0.00    +0.050 C 
BRANCH  19  20
ATOM     20  C   UNL     1       4.303   6.174  -2.569  0.00  0.00    +0.009 A 
ATOM     21  S   UNL     1       3.467   7.441  -1.771  0.00  0.00    -0.091 S 
ATOM     22  C   UNL     1       2.578   6.507  -0.636  0.00  0.00    +0.035 A 
ATOM     23  C   UNL     1       2.793   5.232  -1.146  0.00  0.00    +0.007 A 
ATOM     24  C   UNL     1       4.035   5.118  -1.705  0.00  0.00    +0.003 A 
ENDBRANCH  19  20
ENDBRANCH  18  19
ENDBRANCH   4  18
BRANCH   1  25
ATOM     25  C   UNL     1       0.564   5.341  -7.955  0.00  0.00    +0.161 C 
BRANCH  25  26
ATOM     26  O   UNL     1      -0.193   6.058  -7.041  0.00  0.00    -0.349 OA
ATOM     27  C   UNL     1      -1.343   5.333  -6.755  0.00  0.00    +0.174 C 
ENDBRANCH  25  26
ENDBRANCH   1  25
TORSDOF 8
ENDMDL
MODEL 9
REMARK VINA RESULT:      -7.4      3.306      6.662
REMARK  Name = 
REMARK  8 active torsions:
REMARK  status: ('A' for Active; 'I' for Inactive)
REMARK    1  A    between atoms: C_2  and  C_3
REMARK    2  A    between atoms: N_5  and  C_6
REMARK    3  A    between atoms: N_5  and  C_12
REMARK    4  A    between atoms: C_12  and  C_13
REMARK    5  A    between atoms: C_13  and  O_14
REMARK    6  A    between atoms: N_18  and  C_19
REMARK    7  A    between atoms: C_19  and  C_20
REMARK    8  A    between atoms: C_20  and  C_21
REMARK                            x       y       z     vdW  Elec       q    Type
REMARK                         _______ _______ _______ _____ _____    ______ ____
ROOT
ATOM      1  C   UNL     1       1.268   5.362  -7.237  0.00  0.00    +0.094 C 
ATOM      2  C   UNL     1       1.603   6.729  -6.709  0.00  0.00    +0.038 C 
ATOM      3  C   UNL     1       2.667   6.713  -5.648  0.00  0.00    +0.074 C 
ATOM      4  N   UNL     1       2.367   5.836  -4.545  0.00  0.00    -0.272 NA
ATOM      5  C   UNL     1       1.420   4.800  -4.874  0.00  0.00    +0.074 C 
ATOM      6  C   UNL     1       1.762   4.315  -6.269  0.00  0.00    +0.038 C 
ENDROOT
BRANCH   1   8
ATOM      7  C   UNL     1       2.893   4.362  -8.751  0.00  0.00    +0.229 C 
ATOM      8  N   UNL     1       1.702   5.143  -8.589  0.00  0.00    -0.259 N 
ATOM      9  O   UNL     1       2.800   3.147  -8.483  0.00  0.00    -0.275 OA
BRANCH   8  10
ATOM     10  C   UNL     1       0.961   5.489  -9.740  0.00  0.00    +0.054 A 
ATOM     11  C   UNL     1       0.344   4.556 -10.546  0.00  0.00    +0.015 A 
ATOM     12  C   UNL     1      -0.030   4.914 -11.835  0.00  0.00    +0.001 A 
ATOM     13  C   UNL     1      -0.118   6.253 -12.185  0.00  0.00    +0.000 A 
ATOM     14  C   UNL     1       0.019   7.197 -11.175  0.00  0.00    +0.001 A 
ATOM     15  C   UNL     1       0.747   6.813 -10.074  0.00  0.00    +0.015 A 
ENDBRANCH   8  10
BRANCH   7  17
ATOM     16  C   UNL     1       5.147   5.147  -8.417  0.00  0.00    +0.010 C 
ATOM     17  C   UNL     1       4.054   4.983  -9.435  0.00  0.00    +0.086 C 
ENDBRANCH   7  17
ENDBRANCH   1   8
BRANCH   4  18
ATOM     18  C   UNL     1       3.618   5.167  -4.191  0.00  0.00    +0.077 C 
BRANCH  18  19
ATOM     19  C   UNL     1       4.659   6.177  -3.780  0.00  0.00    +0.050 C 
BRANCH  19  20
ATOM     20  C   UNL     1       4.277   6.723  -2.444  0.00  0.00    +0.009 A 
ATOM     21  S   UNL     1       3.873   8.312  -1.942  0.00  0.00    -0.091 S 
ATOM     22  C   UNL     1       3.199   7.948  -0.405  0.00  0.00    +0.035 A 
ATOM     23  C   UNL     1       3.087   6.567  -0.507  0.00  0.00    +0.007 A 
ATOM     24  C   UNL     1       4.104   6.034  -1.248  0.00  0.00    +0.003 A 
ENDBRANCH  19  20
ENDBRANCH  18  19
ENDBRANCH   4  18
BRANCH   1  25
ATOM     25  C   UNL     1      -0.254   5.261  -7.235  0.00  0.00    +0.161 C 
BRANCH  25  26
ATOM     26  O   UNL     1      -0.793   6.290  -6.478  0.00  0.00    -0.349 OA
ATOM     27  C   UNL     1      -2.068   5.918  -6.071  0.00  0.00    +0.174 C 
ENDBRANCH  25  26
ENDBRANCH   1  25
TORSDOF 8
ENDMDL
