MODEL 1
REMARK VINA RESULT:      -7.8      0.000      0.000
REMARK  Name = 
REMARK  3 active torsions:
REMARK  status: ('A' for Active; 'I' for Inactive)
REMARK    1  A    between atoms: C_7  and  N_8
REMARK    2  A    between atoms: N_8  and  C_9
REMARK    3  A    between atoms: C_14  and  C_15
REMARK                            x       y       z     vdW  Elec       q    Type
REMARK                         _______ _______ _______ _____ _____    ______ ____
ROOT
ATOM      1  N   UNL     1       0.765   5.027  -4.131  0.00  0.00    -0.211 NA
ENDROOT
BRANCH   1   6
ATOM      2  C   UNL     1       4.329   5.568  -7.315  0.00  0.00    +0.032 C 
ATOM      3  C   UNL     1       3.923   5.694  -5.879  0.00  0.00    -0.010 A 
ATOM      4  C   UNL     1       2.885   4.910  -5.391  0.00  0.00    +0.070 A 
ATOM      5 CL   UNL     1       2.235   3.624  -6.395  0.00  0.00    -0.081 Cl
ATOM      6  C   UNL     1       2.138   5.315  -4.292  0.00  0.00    +0.091 A 
ATOM      7  C   UNL     1       2.683   6.356  -3.562  0.00  0.00    +0.074 A 
ATOM      8 CL   UNL     1       2.026   6.620  -1.954  0.00  0.00    -0.081 Cl
ATOM      9  C   UNL     1       3.597   7.248  -4.089  0.00  0.00    +0.012 A 
ATOM     10  C   UNL     1       4.224   6.913  -5.281  0.00  0.00    -0.002 A 
ENDBRANCH   1   6
BRANCH   1  11
ATOM     11  C   UNL     1      -0.287   5.689  -4.802  0.00  0.00    +0.077 A 
ATOM     12  C   UNL     1      -1.359   6.098  -4.020  0.00  0.00    +0.095 A 
ATOM     13  C   UNL     1      -2.432   6.667  -4.694  0.00  0.00    +0.008 A 
ATOM     14  C   UNL     1      -2.677   6.374  -6.029  0.00  0.00    +0.000 A 
ATOM     15  C   UNL     1      -1.795   5.535  -6.698  0.00  0.00    +0.001 A 
ATOM     16  C   UNL     1      -0.517   5.469  -6.155  0.00  0.00    +0.017 A 
BRANCH  12  17
ATOM     17  C   UNL     1      -1.468   5.747  -2.600  0.00  0.00    +0.389 C 
ATOM     18  O   UNL     1      -2.404   4.779  -2.225  0.00  0.00    -0.241 OA
ATOM     19  O   UNL     1      -1.340   6.714  -1.789  0.00  0.00    -0.241 OA
ENDBRANCH  12  17
ENDBRANCH   1  11
TORSDOF 3
ENDMDL
MODEL 2
REMARK VINA RESULT:      -7.1      2.741      5.714
REMARK  Name = 
REMARK  3 active torsions:
REMARK  status: ('A' for Active; 'I' for Inactive)
REMARK    1  A    between atoms: C_7  and  N_8
REMARK    2  A    between atoms: N_8  and  C_9
REMARK    3  A    between atoms: C_14  and  C_15
REMARK                            x       y       z     vdW  Elec       q    Type
REMARK                         _______ _______ _______ _____ _____    ______ ____
ROOT
ATOM      1  N   UNL     1       0.536   5.158  -4.580  0.00  0.00    -0.211 NA
ENDROOT
BRANCH   1   6
ATOM      2  C   UNL     1      -1.833   7.425  -1.062  0.00  0.00    +0.032 C 
ATOM      3  C   UNL     1      -1.934   6.805  -2.421  0.00  0.00    -0.010 A 
ATOM      4  C   UNL     1      -1.032   5.814  -2.789  0.00  0.00    +0.070 A 
ATOM      5 CL   UNL     1       0.048   5.144  -1.577  0.00  0.00    -0.081 Cl
ATOM      6  C   UNL     1      -0.733   5.579  -4.125  0.00  0.00    +0.091 A 
ATOM      7  C   UNL     1      -1.597   6.163  -5.033  0.00  0.00    +0.074 A 
ATOM      8 CL   UNL     1      -1.533   5.563  -6.683  0.00  0.00    -0.081 Cl
ATOM      9  C   UNL     1      -2.382   7.259  -4.727  0.00  0.00    +0.012 A 
ATOM     10  C   UNL     1      -2.545   7.593  -3.390  0.00  0.00    -0.002 A 
ENDBRANCH   1   6
BRANCH   1  11
ATOM     11  C   UNL     1       1.606   6.018  -4.913  0.00  0.00    +0.077 A 
ATOM     12  C   UNL     1       2.212   5.803  -6.144  0.00  0.00    +0.095 A 
ATOM     13  C   UNL     1       3.320   6.589  -6.430  0.00  0.00    +0.008 A 
ATOM     14  C   UNL     1       4.091   7.141  -5.414  0.00  0.00    +0.000 A 
ATOM     15  C   UNL     1       3.701   6.932  -4.097  0.00  0.00    +0.001 A 
ATOM     16  C   UNL     1       2.354   6.639  -3.920  0.00  0.00    +0.017 A 
BRANCH  12  17
ATOM     17  C   UNL     1       1.861   4.664  -6.998  0.00  0.00    +0.389 C 
ATOM     18  O   UNL     1       2.294   3.391  -6.619  0.00  0.00    -0.241 OA
ATOM     19  O   UNL     1       1.888   4.891  -8.246  0.00  0.00    -0.241 OA
ENDBRANCH  12  17
ENDBRANCH   1  11
TORSDOF 3
ENDMDL
MODEL 3
REMARK VINA RESULT:      -7.0      4.802      6.388
REMARK  Name = 
REMARK  3 active torsions:
REMARK  status: ('A' for Active; 'I' for Inactive)
REMARK    1  A    between atoms: C_7  and  N_8
REMARK    2  A    between atoms: N_8  and  C_9
REMARK    3  A    between atoms: C_14  and  C_15
REMARK                            x       y       z     vdW  Elec       q    Type
REMARK                         _______ _______ _______ _____ _____    ______ ____
ROOT
ATOM      1  N   UNL     1       3.911   6.727 -10.077  0.00  0.00    -0.211 NA
ENDROOT
BRANCH   1   6
ATOM      2  C   UNL     1       7.577   5.865 -13.067  0.00  0.00    +0.032 C 
ATOM      3  C   UNL     1       6.931   5.502 -11.767  0.00  0.00    -0.010 A 
ATOM      4  C   UNL     1       5.567   5.710 -11.600  0.00  0.00    +0.070 A 
ATOM      5 CL   UNL     1       4.592   6.165 -12.988  0.00  0.00    -0.081 Cl
ATOM      6  C   UNL     1       5.020   5.892 -10.336  0.00  0.00    +0.091 A 
ATOM      7  C   UNL     1       5.848   5.552  -9.282  0.00  0.00    +0.074 A 
ATOM      8 CL   UNL     1       5.086   5.351  -7.712  0.00  0.00    -0.081 Cl
ATOM      9  C   UNL     1       7.225   5.502  -9.393  0.00  0.00    +0.012 A 
ATOM     10  C   UNL     1       7.778   5.488 -10.665  0.00  0.00    -0.002 A 
ENDBRANCH   1   6
BRANCH   1  11
ATOM     11  C   UNL     1       2.560   6.314 -10.101  0.00  0.00    +0.077 A 
ATOM     12  C   UNL     1       1.770   6.719  -9.033  0.00  0.00    +0.095 A 
ATOM     13  C   UNL     1       0.468   6.237  -9.012  0.00  0.00    +0.008 A 
ATOM     14  C   UNL     1       0.130   5.055  -9.657  0.00  0.00    +0.000 A 
ATOM     15  C   UNL     1       1.114   4.383 -10.372  0.00  0.00    +0.001 A 
ATOM     16  C   UNL     1       2.178   5.172 -10.794  0.00  0.00    +0.017 A 
BRANCH  12  17
ATOM     17  C   UNL     1       2.328   7.419  -7.871  0.00  0.00    +0.389 C 
ATOM     18  O   UNL     1       2.243   6.803  -6.620  0.00  0.00    -0.241 OA
ATOM     19  O   UNL     1       2.163   8.677  -7.863  0.00  0.00    -0.241 OA
ENDBRANCH  12  17
ENDBRANCH   1  11
TORSDOF 3
ENDMDL
MODEL 4
REMARK VINA RESULT:      -6.9      1.814      2.170
REMARK  Name = 
REMARK  3 active torsions:
REMARK  status: ('A' for Active; 'I' for Inactive)
REMARK    1  A    between atoms: C_7  and  N_8
REMARK    2  A    between atoms: N_8  and  C_9
REMARK    3  A    between atoms: C_14  and  C_15
REMARK                            x       y       z     vdW  Elec       q    Type
REMARK                         _______ _______ _______ _____ _____    ______ ____
ROOT
ATOM      1  N   UNL     1       0.730   7.044  -4.358  0.00  0.00    -0.211 NA
ENDROOT
BRANCH   1   6
ATOM      2  C   UNL     1       5.531   6.814  -4.189  0.00  0.00    +0.032 C 
ATOM      3  C   UNL     1       4.247   6.146  -3.808  0.00  0.00    -0.010 A 
ATOM      4  C   UNL     1       3.102   6.387  -4.558  0.00  0.00    +0.070 A 
ATOM      5 CL   UNL     1       3.236   7.272  -6.068  0.00  0.00    -0.081 Cl
ATOM      6  C   UNL     1       1.838   6.244  -4.000  0.00  0.00    +0.091 A 
ATOM      7  C   UNL     1       1.800   5.571  -2.792  0.00  0.00    +0.074 A 
ATOM      8 CL   UNL     1       0.230   4.991  -2.260  0.00  0.00    -0.081 Cl
ATOM      9  C   UNL     1       2.895   5.465  -1.955  0.00  0.00    +0.012 A 
ATOM     10  C   UNL     1       4.146   5.770  -2.473  0.00  0.00    -0.002 A 
ENDBRANCH   1   6
BRANCH   1  11
ATOM     11  C   UNL     1      -0.252   6.691  -5.310  0.00  0.00    +0.077 A 
ATOM     12  C   UNL     1      -1.568   6.987  -4.980  0.00  0.00    +0.095 A 
ATOM     13  C   UNL     1      -2.539   6.558  -5.876  0.00  0.00    +0.008 A 
ATOM     14  C   UNL     1      -2.308   5.483  -6.723  0.00  0.00    +0.000 A 
ATOM     15  C   UNL     1      -1.062   4.870  -6.695  0.00  0.00    +0.001 A 
ATOM     16  C   UNL     1      -0.025   5.664  -6.218  0.00  0.00    +0.017 A 
BRANCH  12  17
ATOM     17  C   UNL     1      -1.943   7.510  -3.662  0.00  0.00    +0.389 C 
ATOM     18  O   UNL     1      -2.849   6.778  -2.890  0.00  0.00    -0.241 OA
ATOM     19  O   UNL     1      -2.074   8.770  -3.594  0.00  0.00    -0.241 OA
ENDBRANCH  12  17
ENDBRANCH   1  11
TORSDOF 3
ENDMDL
MODEL 5
REMARK VINA RESULT:      -6.9      2.783      3.985
REMARK  Name = 
REMARK  3 active torsions:
REMARK  status: ('A' for Active; 'I' for Inactive)
REMARK    1  A    between atoms: C_7  and  N_8
REMARK    2  A    between atoms: N_8  and  C_9
REMARK    3  A    between atoms: C_14  and  C_15
REMARK                            x       y       z     vdW  Elec       q    Type
REMARK                         _______ _______ _______ _____ _____    ______ ____
ROOT
ATOM      1  N   UNL     1       2.037   5.348  -4.271  0.00  0.00    -0.211 NA
ENDROOT
BRANCH   1   6
ATOM      2  C   UNL     1       4.583   6.839  -0.474  0.00  0.00    +0.032 C 
ATOM      3  C   UNL     1       4.131   7.162  -1.864  0.00  0.00    -0.010 A 
ATOM      4  C   UNL     1       2.960   6.596  -2.351  0.00  0.00    +0.070 A 
ATOM      5 CL   UNL     1       1.914   5.709  -1.253  0.00  0.00    -0.081 Cl
ATOM      6  C   UNL     1       2.760   6.426  -3.715  0.00  0.00    +0.091 A 
ATOM      7  C   UNL     1       3.638   7.120  -4.529  0.00  0.00    +0.074 A 
ATOM      8 CL   UNL     1       3.182   7.291  -6.216  0.00  0.00    -0.081 Cl
ATOM      9  C   UNL     1       4.881   7.548  -4.103  0.00  0.00    +0.012 A 
ATOM     10  C   UNL     1       5.136   7.559  -2.739  0.00  0.00    -0.002 A 
ENDBRANCH   1   6
BRANCH   1  11
ATOM     11  C   UNL     1       0.708   5.420  -4.744  0.00  0.00    +0.077 A 
ATOM     12  C   UNL     1       0.481   4.935  -6.026  0.00  0.00    +0.095 A 
ATOM     13  C   UNL     1      -0.807   5.089  -6.523  0.00  0.00    +0.008 A 
ATOM     14  C   UNL     1      -1.644   6.091  -6.050  0.00  0.00    +0.000 A 
ATOM     15  C   UNL     1      -1.185   6.912  -5.027  0.00  0.00    +0.001 A 
ATOM     16  C   UNL     1      -0.175   6.368  -4.242  0.00  0.00    +0.017 A 
BRANCH  12  17
ATOM     17  C   UNL     1       1.574   4.499  -6.900  0.00  0.00    +0.389 C 
ATOM     18  O   UNL     1       1.499   4.805  -8.261  0.00  0.00    -0.241 OA
ATOM     19  O   UNL     1       2.063   3.360  -6.633  0.00  0.00    -0.241 OA
ENDBRANCH  12  17
ENDBRANCH   1  11
TORSDOF 3
ENDMDL
MODEL 6
REMARK VINA RESULT:      -6.8      1.226      2.735
REMARK  Name = 
REMARK  3 active torsions:
REMARK  status: ('A' for Active; 'I' for Inactive)
REMARK    1  A    between atoms: C_7  and  N_8
REMARK    2  A    between atoms: N_8  and  C_9
REMARK    3  A    between atoms: C_14  and  C_15
REMARK                            x       y       z     vdW  Elec       q    Type
REMARK                         _______ _______ _______ _____ _____    ______ ____
ROOT
ATOM      1  N   UNL     1       0.549   5.081  -3.902  0.00  0.00    -0.211 NA
ENDROOT
BRANCH   1   6
ATOM      2  C   UNL     1       4.149   5.873  -0.814  0.00  0.00    +0.032 C 
ATOM      3  C   UNL     1       3.746   5.813  -2.254  0.00  0.00    -0.010 A 
ATOM      4  C   UNL     1       2.419   6.034  -2.603  0.00  0.00    +0.070 A 
ATOM      5 CL   UNL     1       1.297   6.612  -1.382  0.00  0.00    -0.081 Cl
ATOM      6  C   UNL     1       1.889   5.507  -3.773  0.00  0.00    +0.091 A 
ATOM      7  C   UNL     1       2.820   5.034  -4.680  0.00  0.00    +0.074 A 
ATOM      8 CL   UNL     1       2.256   4.760  -6.321  0.00  0.00    -0.081 Cl
ATOM      9  C   UNL     1       4.098   4.652  -4.317  0.00  0.00    +0.012 A 
ATOM     10  C   UNL     1       4.567   5.043  -3.070  0.00  0.00    -0.002 A 
ENDBRANCH   1   6
BRANCH   1  11
ATOM     11  C   UNL     1      -0.440   5.732  -4.673  0.00  0.00    +0.077 A 
ATOM     12  C   UNL     1      -1.546   6.211  -3.982  0.00  0.00    +0.095 A 
ATOM     13  C   UNL     1      -2.558   6.770  -4.753  0.00  0.00    +0.008 A 
ATOM     14  C   UNL     1      -2.728   6.411  -6.083  0.00  0.00    +0.000 A 
ATOM     15  C   UNL     1      -1.831   5.514  -6.649  0.00  0.00    +0.001 A 
ATOM     16  C   UNL     1      -0.592   5.445  -6.023  0.00  0.00    +0.017 A 
BRANCH  12  17
ATOM     17  C   UNL     1      -1.753   5.941  -2.556  0.00  0.00    +0.389 C 
ATOM     18  O   UNL     1      -2.450   4.785  -2.193  0.00  0.00    -0.241 OA
ATOM     19  O   UNL     1      -1.991   6.959  -1.838  0.00  0.00    -0.241 OA
ENDBRANCH  12  17
ENDBRANCH   1  11
TORSDOF 3
ENDMDL
MODEL 7
REMARK VINA RESULT:      -6.8      7.093      8.326
REMARK  Name = 
REMARK  3 active torsions:
REMARK  status: ('A' for Active; 'I' for Inactive)
REMARK    1  A    between atoms: C_7  and  N_8
REMARK    2  A    between atoms: N_8  and  C_9
REMARK    3  A    between atoms: C_14  and  C_15
REMARK                            x       y       z     vdW  Elec       q    Type
REMARK                         _______ _______ _______ _____ _____    ______ ____
ROOT
ATOM      1  N   UNL     1       3.920   6.420 -11.592  0.00  0.00    -0.211 NA
ENDROOT
BRANCH   1   6
ATOM      2  C   UNL     1       8.597   5.773 -12.506  0.00  0.00    +0.032 C 
ATOM      3  C   UNL     1       7.461   5.453 -11.585  0.00  0.00    -0.010 A 
ATOM      4  C   UNL     1       6.158   5.492 -12.066  0.00  0.00    +0.070 A 
ATOM      5 CL   UNL     1       5.886   5.678 -13.791  0.00  0.00    -0.081 Cl
ATOM      6  C   UNL     1       5.086   5.719 -11.213  0.00  0.00    +0.091 A 
ATOM      7  C   UNL     1       5.371   5.594  -9.865  0.00  0.00    +0.074 A 
ATOM      8 CL   UNL     1       3.998   5.444  -8.779  0.00  0.00    -0.081 Cl
ATOM      9  C   UNL     1       6.648   5.718  -9.351  0.00  0.00    +0.012 A 
ATOM     10  C   UNL     1       7.717   5.656 -10.233  0.00  0.00    -0.002 A 
ENDBRANCH   1   6
BRANCH   1  11
ATOM     11  C   UNL     1       2.599   5.949 -11.423  0.00  0.00    +0.077 A 
ATOM     12  C   UNL     1       1.991   5.397 -12.544  0.00  0.00    +0.095 A 
ATOM     13  C   UNL     1       0.663   5.018 -12.400  0.00  0.00    +0.008 A 
ATOM     14  C   UNL     1      -0.152   5.609 -11.444  0.00  0.00    +0.000 A 
ATOM     15  C   UNL     1       0.401   6.558 -10.594  0.00  0.00    +0.001 A 
ATOM     16  C   UNL     1       1.779   6.472 -10.431  0.00  0.00    +0.017 A 
BRANCH  12  17
ATOM     17  C   UNL     1       2.624   5.422 -13.866  0.00  0.00    +0.389 C 
ATOM     18  O   UNL     1       2.242   6.420 -14.767  0.00  0.00    -0.241 OA
ATOM     19  O   UNL     1       2.846   4.286 -14.385  0.00  0.00    -0.241 OA
ENDBRANCH  12  17
ENDBRANCH   1  11
TORSDOF 3
ENDMDL
MODEL 8
REMARK VINA RESULT:      -6.8      2.622      5.575
REMARK  Name = 
REMARK  3 active torsions:
REMARK  status: ('A' for Active; 'I' for Inactive)
REMARK    1  A    between atoms: C_7  and  N_8
REMARK    2  A    between atoms: N_8  and  C_9
REMARK    3  A    between atoms: C_14  and  C_15
REMARK                            x       y       z     vdW  Elec       q    Type
REMARK                         _______ _______ _______ _____ _____    ______ ____
ROOT
ATOM      1  N   UNL     1       1.422   5.801  -3.555  0.00  0.00    -0.211 NA
ENDROOT
BRANCH   1   6
ATOM      2  C   UNL     1      -2.531   5.643  -6.288  0.00  0.00    +0.032 C 
ATOM      3  C   UNL     1      -1.968   5.999  -4.948  0.00  0.00    -0.010 A 
ATOM      4  C   UNL     1      -0.622   6.325  -4.836  0.00  0.00    +0.070 A 
ATOM      5 CL   UNL     1       0.331   6.547  -6.295  0.00  0.00    -0.081 Cl
ATOM      6  C   UNL     1       0.058   6.158  -3.637  0.00  0.00    +0.091 A 
ATOM      7  C   UNL     1      -0.744   5.949  -2.530  0.00  0.00    +0.074 A 
ATOM      8 CL   UNL     1       0.011   6.158  -0.957  0.00  0.00    -0.081 Cl
ATOM      9  C   UNL     1      -2.036   5.466  -2.617  0.00  0.00    +0.012 A 
ATOM     10  C   UNL     1      -2.658   5.482  -3.857  0.00  0.00    -0.002 A 
ENDBRANCH   1   6
BRANCH   1  11
ATOM     11  C   UNL     1       2.506   6.690  -3.735  0.00  0.00    +0.077 A 
ATOM     12  C   UNL     1       3.454   6.325  -4.682  0.00  0.00    +0.095 A 
ATOM     13  C   UNL     1       4.564   7.152  -4.793  0.00  0.00    +0.008 A 
ATOM     14  C   UNL     1       4.979   7.942  -3.729  0.00  0.00    +0.000 A 
ATOM     15  C   UNL     1       4.231   7.927  -2.559  0.00  0.00    +0.001 A 
ATOM     16  C   UNL     1       2.904   7.541  -2.712  0.00  0.00    +0.017 A 
BRANCH  12  17
ATOM     17  C   UNL     1       3.417   5.027  -5.364  0.00  0.00    +0.389 C 
ATOM     18  O   UNL     1       3.998   3.926  -4.730  0.00  0.00    -0.241 OA
ATOM     19  O   UNL     1       3.576   5.068  -6.622  0.00  0.00    -0.241 OA
ENDBRANCH  12  17
ENDBRANCH   1  11
TORSDOF 3
ENDMDL
MODEL 9
REMARK VINA RESULT:      -6.6      2.087      5.621
REMARK  Name = 
REMARK  3 active torsions:
REMARK  status: ('A' for Active; 'I' for Inactive)
REMARK    1  A    between atoms: C_7  and  N_8
REMARK    2  A    between atoms: N_8  and  C_9
REMARK    3  A    between atoms: C_14  and  C_15
REMARK                            x       y       z     vdW  Elec       q    Type
REMARK                         _______ _______ _______ _____ _____    ______ ____
ROOT
ATOM      1  N   UNL     1       1.214   6.359  -4.402  0.00  0.00    -0.211 NA
ENDROOT
BRANCH   1   6
ATOM      2  C   UNL     1      -3.156   5.844  -2.462  0.00  0.00    +0.032 C 
ATOM      3  C   UNL     1      -2.303   5.605  -3.668  0.00  0.00    -0.010 A 
ATOM      4  C   UNL     1      -0.925   5.497  -3.521  0.00  0.00    +0.070 A 
ATOM      5 CL   UNL     1      -0.240   5.402  -1.907  0.00  0.00    -0.081 Cl
ATOM      6  C   UNL     1      -0.068   5.791  -4.573  0.00  0.00    +0.091 A 
ATOM      7  C   UNL     1      -0.671   5.889  -5.814  0.00  0.00    +0.074 A 
ATOM      8 CL   UNL     1       0.388   5.830  -7.214  0.00  0.00    -0.081 Cl
ATOM      9  C   UNL     1      -2.016   6.161  -5.978  0.00  0.00    +0.012 A 
ATOM     10  C   UNL     1      -2.849   6.026  -4.876  0.00  0.00    -0.002 A 
ENDBRANCH   1   6
BRANCH   1  11
ATOM     11  C   UNL     1       2.408   5.628  -4.217  0.00  0.00    +0.077 A 
ATOM     12  C   UNL     1       3.201   6.002  -3.140  0.00  0.00    +0.095 A 
ATOM     13  C   UNL     1       4.417   5.343  -3.013  0.00  0.00    +0.008 A 
ATOM     14  C   UNL     1       5.044   4.774  -4.114  0.00  0.00    +0.000 A 
ATOM     15  C   UNL     1       4.404   4.831  -5.345  0.00  0.00    +0.001 A 
ATOM     16  C   UNL     1       3.023   4.989  -5.286  0.00  0.00    +0.017 A 
BRANCH  12  17
ATOM     17  C   UNL     1       2.897   7.177  -2.318  0.00  0.00    +0.389 C 
ATOM     18  O   UNL     1       3.631   8.346  -2.530  0.00  0.00    -0.241 OA
ATOM     19  O   UNL     1       2.613   6.934  -1.105  0.00  0.00    -0.241 OA
ENDBRANCH  12  17
ENDBRANCH   1  11
TORSDOF 3
ENDMDL
