MODEL 1
REMARK VINA RESULT:      -8.2      0.000      0.000
REMARK  Name = 
REMARK  9 active torsions:
REMARK  status: ('A' for Active; 'I' for Inactive)
REMARK    1  A    between atoms: C_3  and  C_4
REMARK    2  A    between atoms: C_4  and  C_5
REMARK    3  A    between atoms: C_5  and  C_7
REMARK    4  A    between atoms: C_7  and  C_9
REMARK    5  A    between atoms: C_10  and  C_11
REMARK    6  A    between atoms: C_18  and  C_19
REMARK    7  A    between atoms: C_19  and  C_20
REMARK    8  A    between atoms: C_20  and  C_21
REMARK    9  A    between atoms: C_21  and  C_22
REMARK                            x       y       z     vdW  Elec       q    Type
REMARK                         _______ _______ _______ _____ _____    ______ ____
ROOT
ATOM      1  C   UNL     1       2.543   6.173  -6.605  0.00  0.00    +0.052 C 
ATOM      2  C   UNL     1       2.736   4.673  -7.279  0.00  0.00    +0.011 C 
ATOM      3  C   UNL     1       1.646   4.913  -8.536  0.00  0.00    +0.007 C 
ATOM      4  C   UNL     1       0.648   5.819  -7.645  0.00  0.00    +0.022 C 
ATOM      5  C   UNL     1       0.452   5.050  -6.499  0.00  0.00    -0.048 C 
ATOM      6  C   UNL     1      -0.568   5.323  -5.706  0.00  0.00    -0.035 C 
ATOM      7  C   UNL     1       2.473   6.126  -9.156  0.00  0.00    +0.034 C 
ATOM      8  C   UNL     1       1.575   4.095  -6.327  0.00  0.00    +0.022 C 
ATOM      9  C   UNL     1       3.027   7.090  -7.958  0.00  0.00    +0.156 C 
ATOM     10  O   UNL     1       1.684   7.919  -7.990  0.00  0.00    -0.223 OA
ENDROOT
BRANCH   1  12
ATOM     11  C   UNL     1       4.268   5.552  -4.876  0.00  0.00    +0.002 C 
ATOM     12  C   UNL     1       4.068   6.157  -6.064  0.00  0.00    -0.026 C 
BRANCH  11  13
ATOM     13  C   UNL     1       5.099   6.395  -3.759  0.00  0.00    +0.175 C 
ATOM     14  O   UNL     1       4.818   7.704  -4.483  0.00  0.00    -0.218 OA
BRANCH  13  15
ATOM     15  C   UNL     1       3.779   6.638  -2.704  0.00  0.00    +0.048 C 
ATOM     16  C   UNL     1       4.007   5.217  -1.971  0.00  0.00    +0.004 C 
BRANCH  15  17
ATOM     17  C   UNL     1       4.706   7.469  -1.670  0.00  0.00    +0.079 C 
BRANCH  17  20
ATOM     18  C   UNL     1       3.197  10.646  -0.088  0.00  0.00    +0.090 C 
ATOM     19  C   UNL     1       3.475   9.616  -0.654  0.00  0.00    -0.090 C 
ATOM     20  C   UNL     1       3.896   8.586  -1.158  0.00  0.00    -0.091 C 
ENDBRANCH  17  20
ENDBRANCH  15  17
ENDBRANCH  13  15
ENDBRANCH  11  13
ENDBRANCH   1  12
BRANCH   6  21
ATOM     21  C   UNL     1      -1.040   6.690  -5.427  0.00  0.00    +0.026 C 
BRANCH  21  22
ATOM     22  C   UNL     1      -2.236   6.908  -4.629  0.00  0.00    +0.016 C 
BRANCH  22  23
ATOM     23  C   UNL     1      -2.261   6.849  -3.185  0.00  0.00    +0.114 C 
BRANCH  23  24
ATOM     24  C   UNL     1      -2.250   5.550  -2.523  0.00  0.00    +0.365 C 
ATOM     25  O   UNL     1      -1.039   5.175  -1.941  0.00  0.00    -0.246 OA
ATOM     26  O   UNL     1      -3.000   4.621  -2.885  0.00  0.00    -0.246 OA
ENDBRANCH  23  24
ENDBRANCH  22  23
ENDBRANCH  21  22
ENDBRANCH   6  21
TORSDOF 9
ENDMDL
MODEL 2
REMARK VINA RESULT:      -7.7      2.385      5.392
REMARK  Name = 
REMARK  9 active torsions:
REMARK  status: ('A' for Active; 'I' for Inactive)
REMARK    1  A    between atoms: C_3  and  C_4
REMARK    2  A    between atoms: C_4  and  C_5
REMARK    3  A    between atoms: C_5  and  C_7
REMARK    4  A    between atoms: C_7  and  C_9
REMARK    5  A    between atoms: C_10  and  C_11
REMARK    6  A    between atoms: C_18  and  C_19
REMARK    7  A    between atoms: C_19  and  C_20
REMARK    8  A    between atoms: C_20  and  C_21
REMARK    9  A    between atoms: C_21  and  C_22
REMARK                            x       y       z     vdW  Elec       q    Type
REMARK                         _______ _______ _______ _____ _____    ______ ____
ROOT
ATOM      1  C   UNL     1       1.665   5.492  -7.258  0.00  0.00    +0.052 C 
ATOM      2  C   UNL     1       1.764   6.935  -8.062  0.00  0.00    +0.011 C 
ATOM      3  C   UNL     1       3.200   6.583  -8.863  0.00  0.00    +0.007 C 
ATOM      4  C   UNL     1       3.810   5.737  -7.629  0.00  0.00    +0.022 C 
ATOM      5  C   UNL     1       3.644   6.592  -6.540  0.00  0.00    -0.048 C 
ATOM      6  C   UNL     1       4.333   6.370  -5.436  0.00  0.00    -0.035 C 
ATOM      7  C   UNL     1       2.579   5.335  -9.637  0.00  0.00    +0.034 C 
ATOM      8  C   UNL     1       2.565   7.572  -6.821  0.00  0.00    +0.022 C 
ATOM      9  C   UNL     1       1.623   4.476  -8.627  0.00  0.00    +0.156 C 
ATOM     10  O   UNL     1       2.867   3.630  -8.150  0.00  0.00    -0.223 OA
ENDROOT
BRANCH   1  12
ATOM     11  C   UNL     1      -0.505   6.386  -6.341  0.00  0.00    +0.002 C 
ATOM     12  C   UNL     1       0.050   5.569  -7.260  0.00  0.00    -0.026 C 
BRANCH  11  13
ATOM     13  C   UNL     1      -1.686   5.752  -5.418  0.00  0.00    +0.175 C 
ATOM     14  O   UNL     1      -0.666   5.129  -4.475  0.00  0.00    -0.218 OA
BRANCH  13  15
ATOM     15  C   UNL     1      -1.866   7.113  -4.403  0.00  0.00    +0.048 C 
ATOM     16  C   UNL     1      -2.988   7.772  -5.360  0.00  0.00    +0.004 C 
BRANCH  15  17
ATOM     17  C   UNL     1      -2.931   6.329  -3.472  0.00  0.00    +0.079 C 
BRANCH  17  20
ATOM     18  C   UNL     1      -1.721   7.715  -0.083  0.00  0.00    +0.090 C 
ATOM     19  C   UNL     1      -2.279   7.238  -1.042  0.00  0.00    -0.090 C 
ATOM     20  C   UNL     1      -2.705   6.766  -2.085  0.00  0.00    -0.091 C 
ENDBRANCH  17  20
ENDBRANCH  15  17
ENDBRANCH  13  15
ENDBRANCH  11  13
ENDBRANCH   1  12
BRANCH   6  21
ATOM     21  C   UNL     1       4.633   5.024  -4.919  0.00  0.00    +0.026 C 
BRANCH  21  22
ATOM     22  C   UNL     1       4.573   4.753  -3.492  0.00  0.00    +0.016 C 
BRANCH  22  23
ATOM     23  C   UNL     1       3.788   5.528  -2.558  0.00  0.00    +0.114 C 
BRANCH  23  24
ATOM     24  C   UNL     1       3.662   5.072  -1.179  0.00  0.00    +0.365 C 
ATOM     25  O   UNL     1       2.489   4.384  -0.871  0.00  0.00    -0.246 OA
ATOM     26  O   UNL     1       4.215   5.672  -0.235  0.00  0.00    -0.246 OA
ENDBRANCH  23  24
ENDBRANCH  22  23
ENDBRANCH  21  22
ENDBRANCH   6  21
TORSDOF 9
ENDMDL
MODEL 3
REMARK VINA RESULT:      -7.5      3.212      6.292
REMARK  Name = 
REMARK  9 active torsions:
REMARK  status: ('A' for Active; 'I' for Inactive)
REMARK    1  A    between atoms: C_3  and  C_4
REMARK    2  A    between atoms: C_4  and  C_5
REMARK    3  A    between atoms: C_5  and  C_7
REMARK    4  A    between atoms: C_7  and  C_9
REMARK    5  A    between atoms: C_10  and  C_11
REMARK    6  A    between atoms: C_18  and  C_19
REMARK    7  A    between atoms: C_19  and  C_20
REMARK    8  A    between atoms: C_20  and  C_21
REMARK    9  A    between atoms: C_21  and  C_22
REMARK                            x       y       z     vdW  Elec       q    Type
REMARK                         _______ _______ _______ _____ _____    ______ ____
ROOT
ATOM      1  C   UNL     1       2.625   6.157  -6.269  0.00  0.00    +0.052 C 
ATOM      2  C   UNL     1       1.364   7.095  -6.787  0.00  0.00    +0.011 C 
ATOM      3  C   UNL     1       0.757   5.971  -7.881  0.00  0.00    +0.007 C 
ATOM      4  C   UNL     1       2.218   5.415  -8.289  0.00  0.00    +0.022 C 
ATOM      5  C   UNL     1       2.932   6.574  -8.587  0.00  0.00    -0.048 C 
ATOM      6  C   UNL     1       4.052   6.482  -9.280  0.00  0.00    -0.035 C 
ATOM      7  C   UNL     1       0.467   4.882  -6.754  0.00  0.00    +0.034 C 
ATOM      8  C   UNL     1       2.310   7.743  -7.916  0.00  0.00    +0.022 C 
ATOM      9  C   UNL     1       1.703   4.846  -5.685  0.00  0.00    +0.156 C 
ATOM     10  O   UNL     1       2.464   3.794  -6.582  0.00  0.00    -0.223 OA
ENDROOT
BRANCH   1  12
ATOM     11  C   UNL     1       3.673   6.688  -4.040  0.00  0.00    +0.002 C 
ATOM     12  C   UNL     1       2.576   6.848  -4.808  0.00  0.00    -0.026 C 
BRANCH  11  13
ATOM     13  C   UNL     1       3.430   6.152  -2.523  0.00  0.00    +0.175 C 
ATOM     14  O   UNL     1       4.357   4.966  -2.752  0.00  0.00    -0.218 OA
BRANCH  13  15
ATOM     15  C   UNL     1       4.688   7.061  -1.811  0.00  0.00    +0.048 C 
ATOM     16  C   UNL     1       3.731   8.342  -1.578  0.00  0.00    +0.004 C 
BRANCH  15  17
ATOM     17  C   UNL     1       4.391   6.410  -0.359  0.00  0.00    +0.079 C 
BRANCH  17  20
ATOM     18  C   UNL     1       6.277   8.108   2.545  0.00  0.00    +0.090 C 
ATOM     19  C   UNL     1       5.641   7.773   1.574  0.00  0.00    -0.090 C 
ATOM     20  C   UNL     1       5.011   7.286   0.647  0.00  0.00    -0.091 C 
ENDBRANCH  17  20
ENDBRANCH  15  17
ENDBRANCH  13  15
ENDBRANCH  11  13
ENDBRANCH   1  12
BRANCH   6  21
ATOM     21  C   UNL     1       5.015   5.378  -9.128  0.00  0.00    +0.026 C 
BRANCH  21  22
ATOM     22  C   UNL     1       6.377   5.515  -9.620  0.00  0.00    +0.016 C 
BRANCH  22  23
ATOM     23  C   UNL     1       6.719   6.153 -10.872  0.00  0.00    +0.114 C 
BRANCH  23  24
ATOM     24  C   UNL     1       6.795   5.348 -12.086  0.00  0.00    +0.365 C 
ATOM     25  O   UNL     1       5.573   4.962 -12.636  0.00  0.00    -0.246 OA
ATOM     26  O   UNL     1       7.768   4.603 -12.320  0.00  0.00    -0.246 OA
ENDBRANCH  23  24
ENDBRANCH  22  23
ENDBRANCH  21  22
ENDBRANCH   6  21
TORSDOF 9
ENDMDL
MODEL 4
REMARK VINA RESULT:      -7.5      4.390      9.643
REMARK  Name = 
REMARK  9 active torsions:
REMARK  status: ('A' for Active; 'I' for Inactive)
REMARK    1  A    between atoms: C_3  and  C_4
REMARK    2  A    between atoms: C_4  and  C_5
REMARK    3  A    between atoms: C_5  and  C_7
REMARK    4  A    between atoms: C_7  and  C_9
REMARK    5  A    between atoms: C_10  and  C_11
REMARK    6  A    between atoms: C_18  and  C_19
REMARK    7  A    between atoms: C_19  and  C_20
REMARK    8  A    between atoms: C_20  and  C_21
REMARK    9  A    between atoms: C_21  and  C_22
REMARK                            x       y       z     vdW  Elec       q    Type
REMARK                         _______ _______ _______ _____ _____    ______ ____
ROOT
ATOM      1  C   UNL     1       2.193   5.944  -8.928  0.00  0.00    +0.052 C 
ATOM      2  C   UNL     1       1.976   4.595  -7.995  0.00  0.00    +0.011 C 
ATOM      3  C   UNL     1       2.852   5.160  -6.676  0.00  0.00    +0.007 C 
ATOM      4  C   UNL     1       3.926   5.952  -7.588  0.00  0.00    +0.022 C 
ATOM      5  C   UNL     1       4.330   4.992  -8.515  0.00  0.00    -0.048 C 
ATOM      6  C   UNL     1       5.443   5.186  -9.200  0.00  0.00    -0.035 C 
ATOM      7  C   UNL     1       1.882   6.401  -6.436  0.00  0.00    +0.034 C 
ATOM      8  C   UNL     1       3.295   3.936  -8.641  0.00  0.00    +0.022 C 
ATOM      9  C   UNL     1       1.466   7.067  -7.870  0.00  0.00    +0.156 C 
ATOM     10  O   UNL     1       2.746   7.990  -7.825  0.00  0.00    -0.223 OA
ENDROOT
BRANCH   1  12
ATOM     11  C   UNL     1       0.824   5.264 -10.932  0.00  0.00    +0.002 C 
ATOM     12  C   UNL     1       0.769   5.703  -9.658  0.00  0.00    -0.026 C 
BRANCH  11  13
ATOM     13  C   UNL     1      -0.060   6.084 -12.025  0.00  0.00    +0.175 C 
ATOM     14  O   UNL     1       0.140   7.388 -11.265  0.00  0.00    -0.218 OA
BRANCH  13  15
ATOM     15  C   UNL     1       1.241   6.439 -13.072  0.00  0.00    +0.048 C 
ATOM     16  C   UNL     1       1.031   5.076 -13.915  0.00  0.00    +0.004 C 
BRANCH  15  17
ATOM     17  C   UNL     1       0.284   7.331 -14.025  0.00  0.00    +0.079 C 
BRANCH  17  20
ATOM     18  C   UNL     1       2.831   8.283 -16.759  0.00  0.00    +0.090 C 
ATOM     19  C   UNL     1       1.904   7.944 -16.064  0.00  0.00    -0.090 C 
ATOM     20  C   UNL     1       1.052   7.651 -15.239  0.00  0.00    -0.091 C 
ENDBRANCH  17  20
ENDBRANCH  15  17
ENDBRANCH  13  15
ENDBRANCH  11  13
ENDBRANCH   1  12
BRANCH   6  21
ATOM     21  C   UNL     1       5.882   6.505  -9.685  0.00  0.00    +0.026 C 
BRANCH  21  22
ATOM     22  C   UNL     1       5.647   6.898 -11.066  0.00  0.00    +0.016 C 
BRANCH  22  23
ATOM     23  C   UNL     1       6.574   6.638 -12.144  0.00  0.00    +0.114 C 
BRANCH  23  24
ATOM     24  C   UNL     1       6.631   5.304 -12.730  0.00  0.00    +0.365 C 
ATOM     25  O   UNL     1       7.859   4.650 -12.632  0.00  0.00    -0.246 OA
ATOM     26  O   UNL     1       5.904   4.976 -13.690  0.00  0.00    -0.246 OA
ENDBRANCH  23  24
ENDBRANCH  22  23
ENDBRANCH  21  22
ENDBRANCH   6  21
TORSDOF 9
ENDMDL
MODEL 5
REMARK VINA RESULT:      -7.4      3.689      6.920
REMARK  Name = 
REMARK  9 active torsions:
REMARK  status: ('A' for Active; 'I' for Inactive)
REMARK    1  A    between atoms: C_3  and  C_4
REMARK    2  A    between atoms: C_4  and  C_5
REMARK    3  A    between atoms: C_5  and  C_7
REMARK    4  A    between atoms: C_7  and  C_9
REMARK    5  A    between atoms: C_10  and  C_11
REMARK    6  A    between atoms: C_18  and  C_19
REMARK    7  A    between atoms: C_19  and  C_20
REMARK    8  A    between atoms: C_20  and  C_21
REMARK    9  A    between atoms: C_21  and  C_22
REMARK                            x       y       z     vdW  Elec       q    Type
REMARK                         _______ _______ _______ _____ _____    ______ ____
ROOT
ATOM      1  C   UNL     1       2.735   5.862  -7.785  0.00  0.00    +0.052 C 
ATOM      2  C   UNL     1       1.757   6.916  -8.604  0.00  0.00    +0.011 C 
ATOM      3  C   UNL     1       1.721   6.034 -10.035  0.00  0.00    +0.007 C 
ATOM      4  C   UNL     1       3.246   5.522  -9.888  0.00  0.00    +0.022 C 
ATOM      5  C   UNL     1       3.957   6.696  -9.643  0.00  0.00    -0.048 C 
ATOM      6  C   UNL     1       5.267   6.702  -9.807  0.00  0.00    -0.035 C 
ATOM      7  C   UNL     1       1.045   4.763  -9.351  0.00  0.00    +0.034 C 
ATOM      8  C   UNL     1       3.052   7.737  -9.095  0.00  0.00    +0.022 C 
ATOM      9  C   UNL     1       1.724   4.493  -7.889  0.00  0.00    +0.156 C 
ATOM     10  O   UNL     1       2.843   3.605  -8.559  0.00  0.00    -0.223 OA
ENDROOT
BRANCH   1  12
ATOM     11  C   UNL     1       2.878   6.726  -5.422  0.00  0.00    +0.002 C 
ATOM     12  C   UNL     1       2.045   6.271  -6.380  0.00  0.00    -0.026 C 
BRANCH  11  13
ATOM     13  C   UNL     1       2.756   6.028  -3.957  0.00  0.00    +0.175 C 
ATOM     14  O   UNL     1       3.327   4.721  -4.490  0.00  0.00    -0.218 OA
BRANCH  13  15
ATOM     15  C   UNL     1       4.290   6.526  -3.396  0.00  0.00    +0.048 C 
ATOM     16  C   UNL     1       3.712   7.924  -2.829  0.00  0.00    +0.004 C 
BRANCH  15  17
ATOM     17  C   UNL     1       4.087   5.726  -2.004  0.00  0.00    +0.079 C 
BRANCH  17  20
ATOM     18  C   UNL     1       5.261   7.450   1.239  0.00  0.00    +0.090 C 
ATOM     19  C   UNL     1       4.947   7.091   0.129  0.00  0.00    -0.090 C 
ATOM     20  C   UNL     1       4.569   6.600  -0.923  0.00  0.00    -0.091 C 
ENDBRANCH  17  20
ENDBRANCH  15  17
ENDBRANCH  13  15
ENDBRANCH  11  13
ENDBRANCH   1  12
BRANCH   6  21
ATOM     21  C   UNL     1       6.136   5.562  -9.469  0.00  0.00    +0.026 C 
BRANCH  21  22
ATOM     22  C   UNL     1       7.532   5.553  -9.876  0.00  0.00    +0.016 C 
BRANCH  22  23
ATOM     23  C   UNL     1       8.072   6.402 -10.915  0.00  0.00    +0.114 C 
BRANCH  23  24
ATOM     24  C   UNL     1       8.556   5.798 -12.150  0.00  0.00    +0.365 C 
ATOM     25  O   UNL     1       7.916   4.623 -12.543  0.00  0.00    -0.246 OA
ATOM     26  O   UNL     1       9.735   5.941 -12.534  0.00  0.00    -0.246 OA
ENDBRANCH  23  24
ENDBRANCH  22  23
ENDBRANCH  21  22
ENDBRANCH   6  21
TORSDOF 9
ENDMDL
MODEL 6
REMARK VINA RESULT:      -7.4      2.239      3.933
REMARK  Name = 
REMARK  9 active torsions:
REMARK  status: ('A' for Active; 'I' for Inactive)
REMARK    1  A    between atoms: C_3  and  C_4
REMARK    2  A    between atoms: C_4  and  C_5
REMARK    3  A    between atoms: C_5  and  C_7
REMARK    4  A    between atoms: C_7  and  C_9
REMARK    5  A    between atoms: C_10  and  C_11
REMARK    6  A    between atoms: C_18  and  C_19
REMARK    7  A    between atoms: C_19  and  C_20
REMARK    8  A    between atoms: C_20  and  C_21
REMARK    9  A    between atoms: C_21  and  C_22
REMARK                            x       y       z     vdW  Elec       q    Type
REMARK                         _______ _______ _______ _____ _____    ______ ____
ROOT
ATOM      1  C   UNL     1       3.419   7.209  -3.217  0.00  0.00    +0.052 C 
ATOM      2  C   UNL     1       4.002   5.808  -2.558  0.00  0.00    +0.011 C 
ATOM      3  C   UNL     1       3.898   4.902  -3.971  0.00  0.00    +0.007 C 
ATOM      4  C   UNL     1       2.553   5.640  -4.476  0.00  0.00    +0.022 C 
ATOM      5  C   UNL     1       1.710   5.566  -3.368  0.00  0.00    -0.048 C 
ATOM      6  C   UNL     1       0.414   5.765  -3.529  0.00  0.00    -0.035 C 
ATOM      7  C   UNL     1       4.916   5.838  -4.764  0.00  0.00    +0.034 C 
ATOM      8  C   UNL     1       2.509   5.387  -2.130  0.00  0.00    +0.022 C 
ATOM      9  C   UNL     1       4.614   7.407  -4.417  0.00  0.00    +0.156 C 
ATOM     10  O   UNL     1       3.556   7.474  -5.587  0.00  0.00    -0.223 OA
ENDROOT
BRANCH   1  12
ATOM     11  C   UNL     1       4.118   7.831  -0.877  0.00  0.00    +0.002 C 
ATOM     12  C   UNL     1       4.300   8.093  -2.187  0.00  0.00    -0.026 C 
BRANCH  11  13
ATOM     13  C   UNL     1       3.820   9.108   0.087  0.00  0.00    +0.175 C 
ATOM     14  O   UNL     1       3.483   9.983  -1.112  0.00  0.00    -0.218 OA
BRANCH  13  15
ATOM     15  C   UNL     1       2.172   8.748   0.350  0.00  0.00    +0.048 C 
ATOM     16  C   UNL     1       2.485   7.969   1.730  0.00  0.00    +0.004 C 
BRANCH  15  17
ATOM     17  C   UNL     1       1.930  10.182   1.062  0.00  0.00    +0.079 C 
BRANCH  17  20
ATOM     18  C   UNL     1      -1.770  10.153   2.146  0.00  0.00    +0.090 C 
ATOM     19  C   UNL     1      -0.571  10.110   2.007  0.00  0.00    -0.090 C 
ATOM     20  C   UNL     1       0.616  10.126   1.722  0.00  0.00    -0.091 C 
ENDBRANCH  17  20
ENDBRANCH  15  17
ENDBRANCH  13  15
ENDBRANCH  11  13
ENDBRANCH   1  12
BRANCH   6  21
ATOM     21  C   UNL     1      -0.148   6.752  -4.466  0.00  0.00    +0.026 C 
BRANCH  21  22
ATOM     22  C   UNL     1      -1.584   6.977  -4.525  0.00  0.00    +0.016 C 
BRANCH  22  23
ATOM     23  C   UNL     1      -2.566   5.917  -4.493  0.00  0.00    +0.114 C 
BRANCH  23  24
ATOM     24  C   UNL     1      -3.176   5.547  -3.221  0.00  0.00    +0.365 C 
ATOM     25  O   UNL     1      -3.864   6.563  -2.559  0.00  0.00    -0.246 OA
ATOM     26  O   UNL     1      -2.704   4.640  -2.505  0.00  0.00    -0.246 OA
ENDBRANCH  23  24
ENDBRANCH  22  23
ENDBRANCH  21  22
ENDBRANCH   6  21
TORSDOF 9
ENDMDL
MODEL 7
REMARK VINA RESULT:      -7.3      3.407      7.387
REMARK  Name = 
REMARK  9 active torsions:
REMARK  status: ('A' for Active; 'I' for Inactive)
REMARK    1  A    between atoms: C_3  and  C_4
REMARK    2  A    between atoms: C_4  and  C_5
REMARK    3  A    between atoms: C_5  and  C_7
REMARK    4  A    between atoms: C_7  and  C_9
REMARK    5  A    between atoms: C_10  and  C_11
REMARK    6  A    between atoms: C_18  and  C_19
REMARK    7  A    between atoms: C_19  and  C_20
REMARK    8  A    between atoms: C_20  and  C_21
REMARK    9  A    between atoms: C_21  and  C_22
REMARK                            x       y       z     vdW  Elec       q    Type
REMARK                         _______ _______ _______ _____ _____    ______ ____
ROOT
ATOM      1  C   UNL     1       1.463   5.120  -8.382  0.00  0.00    +0.052 C 
ATOM      2  C   UNL     1       2.509   6.288  -8.911  0.00  0.00    +0.011 C 
ATOM      3  C   UNL     1       3.591   6.135  -7.633  0.00  0.00    +0.007 C 
ATOM      4  C   UNL     1       2.437   5.819  -6.548  0.00  0.00    +0.022 C 
ATOM      5  C   UNL     1       1.515   6.846  -6.750  0.00  0.00    -0.048 C 
ATOM      6  C   UNL     1       0.616   7.098  -5.816  0.00  0.00    -0.035 C 
ATOM      7  C   UNL     1       3.932   4.615  -7.971  0.00  0.00    +0.034 C 
ATOM      8  C   UNL     1       1.665   7.404  -8.117  0.00  0.00    +0.022 C 
ATOM      9  C   UNL     1       2.564   3.818  -8.379  0.00  0.00    +0.156 C 
ATOM     10  O   UNL     1       2.296   3.477  -6.862  0.00  0.00    -0.223 OA
ENDROOT
BRANCH   1  12
ATOM     11  C   UNL     1       1.457   5.636 -10.849  0.00  0.00    +0.002 C 
ATOM     12  C   UNL     1       1.043   4.768  -9.904  0.00  0.00    -0.026 C 
BRANCH  11  13
ATOM     13  C   UNL     1       0.327   6.183 -11.884  0.00  0.00    +0.175 C 
ATOM     14  O   UNL     1       0.224   7.503 -11.133  0.00  0.00    -0.218 OA
BRANCH  13  15
ATOM     15  C   UNL     1       1.425   6.851 -13.007  0.00  0.00    +0.048 C 
ATOM     16  C   UNL     1       1.538   5.468 -13.833  0.00  0.00    +0.004 C 
BRANCH  15  17
ATOM     17  C   UNL     1       0.214   7.441 -13.903  0.00  0.00    +0.079 C 
BRANCH  17  20
ATOM     18  C   UNL     1       0.992  10.650 -15.895  0.00  0.00    +0.090 C 
ATOM     19  C   UNL     1       0.953   9.602 -15.297  0.00  0.00    -0.090 C 
ATOM     20  C   UNL     1       0.757   8.560 -14.690  0.00  0.00    -0.091 C 
ENDBRANCH  17  20
ENDBRANCH  15  17
ENDBRANCH  13  15
ENDBRANCH  11  13
ENDBRANCH   1  12
BRANCH   6  21
ATOM     21  C   UNL     1      -0.034   6.053  -5.008  0.00  0.00    +0.026 C 
BRANCH  21  22
ATOM     22  C   UNL     1      -1.452   5.772  -5.168  0.00  0.00    +0.016 C 
BRANCH  22  23
ATOM     23  C   UNL     1      -2.494   6.462  -4.441  0.00  0.00    +0.114 C 
BRANCH  23  24
ATOM     24  C   UNL     1      -3.094   5.823  -3.275  0.00  0.00    +0.365 C 
ATOM     25  O   UNL     1      -3.537   6.684  -2.272  0.00  0.00    -0.246 OA
ATOM     26  O   UNL     1      -2.766   4.675  -2.914  0.00  0.00    -0.246 OA
ENDBRANCH  23  24
ENDBRANCH  22  23
ENDBRANCH  21  22
ENDBRANCH   6  21
TORSDOF 9
ENDMDL
MODEL 8
REMARK VINA RESULT:      -7.2      2.389      5.980
REMARK  Name = 
REMARK  9 active torsions:
REMARK  status: ('A' for Active; 'I' for Inactive)
REMARK    1  A    between atoms: C_3  and  C_4
REMARK    2  A    between atoms: C_4  and  C_5
REMARK    3  A    between atoms: C_5  and  C_7
REMARK    4  A    between atoms: C_7  and  C_9
REMARK    5  A    between atoms: C_10  and  C_11
REMARK    6  A    between atoms: C_18  and  C_19
REMARK    7  A    between atoms: C_19  and  C_20
REMARK    8  A    between atoms: C_20  and  C_21
REMARK    9  A    between atoms: C_21  and  C_22
REMARK                            x       y       z     vdW  Elec       q    Type
REMARK                         _______ _______ _______ _____ _____    ______ ____
ROOT
ATOM      1  C   UNL     1      -0.969   6.258  -3.273  0.00  0.00    +0.052 C 
ATOM      2  C   UNL     1      -1.337   7.684  -2.518  0.00  0.00    +0.011 C 
ATOM      3  C   UNL     1      -2.963   7.331  -2.275  0.00  0.00    +0.007 C 
ATOM      4  C   UNL     1      -3.109   6.521  -3.664  0.00  0.00    +0.022 C 
ATOM      5  C   UNL     1      -2.572   7.398  -4.606  0.00  0.00    -0.048 C 
ATOM      6  C   UNL     1      -2.835   7.208  -5.886  0.00  0.00    -0.035 C 
ATOM      7  C   UNL     1      -2.653   6.060  -1.365  0.00  0.00    +0.034 C 
ATOM      8  C   UNL     1      -1.655   8.358  -3.945  0.00  0.00    +0.022 C 
ATOM      9  C   UNL     1      -1.408   5.212  -2.001  0.00  0.00    +0.156 C 
ATOM     10  O   UNL     1      -2.412   4.391  -2.901  0.00  0.00    -0.223 OA
ENDROOT
BRANCH   1  12
ATOM     11  C   UNL     1       1.473   6.812  -3.554  0.00  0.00    +0.002 C 
ATOM     12  C   UNL     1       0.545   6.317  -2.709  0.00  0.00    -0.026 C 
BRANCH  11  13
ATOM     13  C   UNL     1       2.815   5.916  -3.770  0.00  0.00    +0.175 C 
ATOM     14  O   UNL     1       2.033   4.863  -4.543  0.00  0.00    -0.218 OA
BRANCH  13  15
ATOM     15  C   UNL     1       3.307   6.681  -5.214  0.00  0.00    +0.048 C 
ATOM     16  C   UNL     1       4.437   7.552  -4.455  0.00  0.00    +0.004 C 
BRANCH  15  17
ATOM     17  C   UNL     1       4.303   5.457  -5.572  0.00  0.00    +0.079 C 
BRANCH  17  20
ATOM     18  C   UNL     1       5.426   5.224  -9.254  0.00  0.00    +0.090 C 
ATOM     19  C   UNL     1       5.070   5.505  -8.134  0.00  0.00    -0.090 C 
ATOM     20  C   UNL     1       4.733   5.637  -6.968  0.00  0.00    -0.091 C 
ENDBRANCH  17  20
ENDBRANCH  15  17
ENDBRANCH  13  15
ENDBRANCH  11  13
ENDBRANCH   1  12
BRANCH   6  21
ATOM     21  C   UNL     1      -2.940   5.878  -6.508  0.00  0.00    +0.026 C 
BRANCH  21  22
ATOM     22  C   UNL     1      -1.752   5.064  -6.714  0.00  0.00    +0.016 C 
BRANCH  22  23
ATOM     23  C   UNL     1      -0.438   5.610  -6.967  0.00  0.00    +0.114 C 
BRANCH  23  24
ATOM     24  C   UNL     1       0.196   5.374  -8.258  0.00  0.00    +0.365 C 
ATOM     25  O   UNL     1       1.524   4.950  -8.214  0.00  0.00    -0.246 OA
ATOM     26  O   UNL     1      -0.154   5.991  -9.285  0.00  0.00    -0.246 OA
ENDBRANCH  23  24
ENDBRANCH  22  23
ENDBRANCH  21  22
ENDBRANCH   6  21
TORSDOF 9
ENDMDL
MODEL 9
REMARK VINA RESULT:      -7.2      3.174      6.965
REMARK  Name = 
REMARK  9 active torsions:
REMARK  status: ('A' for Active; 'I' for Inactive)
REMARK    1  A    between atoms: C_3  and  C_4
REMARK    2  A    between atoms: C_4  and  C_5
REMARK    3  A    between atoms: C_5  and  C_7
REMARK    4  A    between atoms: C_7  and  C_9
REMARK    5  A    between atoms: C_10  and  C_11
REMARK    6  A    between atoms: C_18  and  C_19
REMARK    7  A    between atoms: C_19  and  C_20
REMARK    8  A    between atoms: C_20  and  C_21
REMARK    9  A    between atoms: C_21  and  C_22
REMARK                            x       y       z     vdW  Elec       q    Type
REMARK                         _______ _______ _______ _____ _____    ______ ____
ROOT
ATOM      1  C   UNL     1       2.827   6.666  -6.975  0.00  0.00    +0.052 C 
ATOM      2  C   UNL     1       3.276   5.114  -7.331  0.00  0.00    +0.011 C 
ATOM      3  C   UNL     1       2.584   4.421  -5.964  0.00  0.00    +0.007 C 
ATOM      4  C   UNL     1       2.919   5.686  -5.018  0.00  0.00    +0.022 C 
ATOM      5  C   UNL     1       4.276   5.911  -5.250  0.00  0.00    -0.048 C 
ATOM      6  C   UNL     1       4.962   6.648  -4.396  0.00  0.00    -0.035 C 
ATOM      7  C   UNL     1       1.109   4.882  -6.354  0.00  0.00    +0.034 C 
ATOM      8  C   UNL     1       4.671   5.339  -6.561  0.00  0.00    +0.022 C 
ATOM      9  C   UNL     1       1.142   6.409  -6.939  0.00  0.00    +0.156 C 
ATOM     10  O   UNL     1       0.994   6.984  -5.476  0.00  0.00    -0.223 OA
ENDROOT
BRANCH   1  12
ATOM     11  C   UNL     1       3.436   6.230  -9.381  0.00  0.00    +0.002 C 
ATOM     12  C   UNL     1       2.742   7.032  -8.548  0.00  0.00    -0.026 C 
BRANCH  11  13
ATOM     13  C   UNL     1       4.426   6.964 -10.444  0.00  0.00    +0.175 C 
ATOM     14  O   UNL     1       5.647   6.620  -9.603  0.00  0.00    -0.218 OA
BRANCH  13  15
ATOM     15  C   UNL     1       4.664   5.596 -11.437  0.00  0.00    +0.048 C 
ATOM     16  C   UNL     1       3.263   5.821 -12.210  0.00  0.00    +0.004 C 
BRANCH  15  17
ATOM     17  C   UNL     1       5.536   6.460 -12.490  0.00  0.00    +0.079 C 
BRANCH  17  20
ATOM     18  C   UNL     1       9.335   5.817 -12.316  0.00  0.00    +0.090 C 
ATOM     19  C   UNL     1       8.128   5.808 -12.358  0.00  0.00    -0.090 C 
ATOM     20  C   UNL     1       6.917   5.954 -12.432  0.00  0.00    -0.091 C 
ENDBRANCH  17  20
ENDBRANCH  15  17
ENDBRANCH  13  15
ENDBRANCH  11  13
ENDBRANCH   1  12
BRANCH   6  21
ATOM     21  C   UNL     1       4.412   7.833  -3.716  0.00  0.00    +0.026 C 
BRANCH  21  22
ATOM     22  C   UNL     1       4.336   7.881  -2.264  0.00  0.00    +0.016 C 
BRANCH  22  23
ATOM     23  C   UNL     1       3.226   7.358  -1.499  0.00  0.00    +0.114 C 
BRANCH  23  24
ATOM     24  C   UNL     1       3.317   6.016  -0.937  0.00  0.00    +0.365 C 
ATOM     25  O   UNL     1       4.300   5.829   0.034  0.00  0.00    -0.246 OA
ATOM     26  O   UNL     1       2.985   5.005  -1.590  0.00  0.00    -0.246 OA
ENDBRANCH  23  24
ENDBRANCH  22  23
ENDBRANCH  21  22
ENDBRANCH   6  21
TORSDOF 9
ENDMDL
