MODEL 1
REMARK VINA RESULT:      -7.8      0.000      0.000
REMARK  Name = 
REMARK  4 active torsions:
REMARK  status: ('A' for Active; 'I' for Inactive)
REMARK    1  A    between atoms: O_2  and  C_3
REMARK    2  A    between atoms: C_4  and  N_5
REMARK    3  A    between atoms: C_20  and  C_21
REMARK    4  A    between atoms: N_25  and  C_26
REMARK                            x       y       z     vdW  Elec       q    Type
REMARK                         _______ _______ _______ _____ _____    ______ ____
ROOT
ATOM      1  C   UNL     1       2.178   5.720  -3.866  0.00  0.00    +0.170 A 
ATOM      2  C   UNL     1       1.764   5.676  -2.539  0.00  0.00    +0.099 A 
ATOM      3  C   UNL     1       0.433   5.412  -2.240  0.00  0.00    +0.060 A 
ATOM      4  C   UNL     1      -0.098   5.858  -1.033  0.00  0.00    +0.205 A 
ATOM      5  C   UNL     1       0.562   6.883  -0.363  0.00  0.00    +0.136 A 
ATOM      6  C   UNL     1       1.940   6.916  -0.525  0.00  0.00    +0.086 A 
ATOM      7  O   UNL     1      -1.357   5.826  -0.890  0.00  0.00    -0.286 OA
ATOM      8  C   UNL     1      -0.353   5.009  -3.314  0.00  0.00    +0.036 A 
ATOM      9  C   UNL     1      -0.055   5.383  -4.624  0.00  0.00    +0.157 A 
ATOM     10  F   UNL     1      -1.078   5.961  -5.333  0.00  0.00    -0.203 F 
ATOM     11  N   UNL     1       2.496   6.255  -1.555  0.00  0.00    -0.325 N 
ATOM     12  C   UNL     1       1.264   5.731  -4.916  0.00  0.00    +0.112 A 
ENDROOT
BRANCH  12  13
ATOM     13  N   UNL     1       1.609   6.517  -6.067  0.00  0.00    -0.302 N 
ATOM     14  C   UNL     1       2.846   7.174  -6.357  0.00  0.00    +0.108 C 
ATOM     15  C   UNL     1       3.226   6.565  -7.817  0.00  0.00    +0.094 C 
ATOM     16  C   UNL     1       1.710   7.050  -8.420  0.00  0.00    +0.038 C 
ATOM     17  C   UNL     1       1.513   5.785  -9.416  0.00  0.00    +0.005 C 
ATOM     18  C   UNL     1       2.842   5.221  -9.766  0.00  0.00    +0.019 C 
ATOM     19  C   UNL     1       3.245   4.332  -8.591  0.00  0.00    +0.089 C 
ATOM     20  N   UNL     1       2.811   5.108  -7.434  0.00  0.00    -0.218 NA
ATOM     21  C   UNL     1       0.854   6.356  -7.252  0.00  0.00    +0.092 C 
ENDBRANCH  12  13
BRANCH   5  22
ATOM     22  C   UNL     1      -0.175   7.826   0.451  0.00  0.00    +0.392 C 
ATOM     23  O   UNL     1      -0.569   7.411   1.728  0.00  0.00    -0.240 OA
ATOM     24  O   UNL     1       0.175   9.039   0.340  0.00  0.00    -0.240 OA
ENDBRANCH   5  22
BRANCH  11  25
ATOM     25  C   UNL     1       3.931   6.012  -1.668  0.00  0.00    +0.086 C 
ATOM     26  C   UNL     1       4.316   4.779  -0.799  0.00  0.00    +0.024 C 
ATOM     27  C   UNL     1       4.648   6.153  -0.301  0.00  0.00    +0.024 C 
ENDBRANCH  11  25
BRANCH   1  29
ATOM     28  C   UNL     1       4.293   4.814  -4.412  0.00  0.00    +0.253 C 
ATOM     29  O   UNL     1       3.538   5.756  -4.082  0.00  0.00    -0.469 OA
ENDBRANCH   1  29
TORSDOF 4
ENDMDL
MODEL 2
REMARK VINA RESULT:      -7.8      3.708      7.934
REMARK  Name = 
REMARK  4 active torsions:
REMARK  status: ('A' for Active; 'I' for Inactive)
REMARK    1  A    between atoms: O_2  and  C_3
REMARK    2  A    between atoms: C_4  and  N_5
REMARK    3  A    between atoms: C_20  and  C_21
REMARK    4  A    between atoms: N_25  and  C_26
REMARK                            x       y       z     vdW  Elec       q    Type
REMARK                         _______ _______ _______ _____ _____    ______ ____
ROOT
ATOM      1  C   UNL     1       0.527   5.380  -7.120  0.00  0.00    +0.170 A 
ATOM      2  C   UNL     1       1.341   5.107  -8.214  0.00  0.00    +0.099 A 
ATOM      3  C   UNL     1       2.522   4.397  -8.036  0.00  0.00    +0.060 A 
ATOM      4  C   UNL     1       3.559   4.555  -8.949  0.00  0.00    +0.205 A 
ATOM      5  C   UNL     1       3.562   5.691  -9.753  0.00  0.00    +0.136 A 
ATOM      6  C   UNL     1       2.311   6.189 -10.089  0.00  0.00    +0.086 A 
ATOM      7  O   UNL     1       4.701   4.098  -8.639  0.00  0.00    -0.286 OA
ATOM      8  C   UNL     1       2.697   3.833  -6.777  0.00  0.00    +0.036 A 
ATOM      9  C   UNL     1       2.100   4.376  -5.639  0.00  0.00    +0.157 A 
ATOM     10  F   UNL     1       2.938   4.631  -4.583  0.00  0.00    -0.203 F 
ATOM     11  N   UNL     1       1.241   5.825  -9.361  0.00  0.00    -0.325 N 
ATOM     12  C   UNL     1       0.960   5.161  -5.815  0.00  0.00    +0.112 A 
ENDROOT
BRANCH  12  13
ATOM     13  N   UNL     1       0.517   6.097  -4.821  0.00  0.00    -0.302 N 
ATOM     14  C   UNL     1      -0.288   7.266  -4.995  0.00  0.00    +0.108 C 
ATOM     15  C   UNL     1      -1.509   7.003  -3.953  0.00  0.00    +0.094 C 
ATOM     16  C   UNL     1      -0.391   6.780  -2.689  0.00  0.00    +0.038 C 
ATOM     17  C   UNL     1      -1.242   5.639  -1.912  0.00  0.00    +0.005 C 
ATOM     18  C   UNL     1      -2.680   5.772  -2.259  0.00  0.00    +0.019 C 
ATOM     19  C   UNL     1      -2.852   5.088  -3.614  0.00  0.00    +0.089 C 
ATOM     20  N   UNL     1      -1.652   5.495  -4.337  0.00  0.00    -0.218 NA
ATOM     21  C   UNL     1       0.498   5.691  -3.466  0.00  0.00    +0.092 C 
ENDBRANCH  12  13
BRANCH   5  22
ATOM     22  C   UNL     1       4.808   6.276 -10.200  0.00  0.00    +0.392 C 
ATOM     23  O   UNL     1       5.594   5.530 -11.084  0.00  0.00    -0.240 OA
ATOM     24  O   UNL     1       4.790   7.530 -10.388  0.00  0.00    -0.240 OA
ENDBRANCH   5  22
BRANCH  11  25
ATOM     25  C   UNL     1      -0.135   6.080  -9.777  0.00  0.00    +0.086 C 
ATOM     26  C   UNL     1      -0.392   5.399 -11.153  0.00  0.00    +0.024 C 
ATOM     27  C   UNL     1      -0.195   6.884 -11.102  0.00  0.00    +0.024 C 
ENDBRANCH  11  25
BRANCH   1  29
ATOM     28  C   UNL     1      -1.829   5.296  -7.304  0.00  0.00    +0.253 C 
ATOM     29  O   UNL     1      -0.726   5.880  -7.399  0.00  0.00    -0.469 OA
ENDBRANCH   1  29
TORSDOF 4
ENDMDL
MODEL 3
REMARK VINA RESULT:      -7.7      2.537      7.303
REMARK  Name = 
REMARK  4 active torsions:
REMARK  status: ('A' for Active; 'I' for Inactive)
REMARK    1  A    between atoms: O_2  and  C_3
REMARK    2  A    between atoms: C_4  and  N_5
REMARK    3  A    between atoms: C_20  and  C_21
REMARK    4  A    between atoms: N_25  and  C_26
REMARK                            x       y       z     vdW  Elec       q    Type
REMARK                         _______ _______ _______ _____ _____    ______ ____
ROOT
ATOM      1  C   UNL     1       1.334   6.209  -2.651  0.00  0.00    +0.170 A 
ATOM      2  C   UNL     1       1.502   5.867  -3.988  0.00  0.00    +0.099 A 
ATOM      3  C   UNL     1       2.771   5.579  -4.473  0.00  0.00    +0.060 A 
ATOM      4  C   UNL     1       3.039   5.743  -5.829  0.00  0.00    +0.205 A 
ATOM      5  C   UNL     1       2.195   6.564  -6.571  0.00  0.00    +0.136 A 
ATOM      6  C   UNL     1       0.872   6.594  -6.156  0.00  0.00    +0.086 A 
ATOM      7  O   UNL     1       4.250   5.715  -6.204  0.00  0.00    -0.286 OA
ATOM      8  C   UNL     1       3.768   5.461  -3.511  0.00  0.00    +0.036 A 
ATOM      9  C   UNL     1       3.687   6.124  -2.285  0.00  0.00    +0.157 A 
ATOM     10  F   UNL     1       4.777   6.880  -1.937  0.00  0.00    -0.203 F 
ATOM     11  N   UNL     1       0.562   6.178  -4.916  0.00  0.00    -0.325 N 
ATOM     12  C   UNL     1       2.422   6.492  -1.828  0.00  0.00    +0.112 A 
ENDROOT
BRANCH  12  13
ATOM     13  N   UNL     1       2.236   7.517  -0.840  0.00  0.00    -0.302 N 
ATOM     14  C   UNL     1       1.555   7.430   0.415  0.00  0.00    +0.108 C 
ATOM     15  C   UNL     1       2.696   7.925   1.463  0.00  0.00    +0.094 C 
ATOM     16  C   UNL     1       2.900   9.361   0.572  0.00  0.00    +0.038 C 
ATOM     17  C   UNL     1       4.497   9.488   0.824  0.00  0.00    +0.005 C 
ATOM     18  C   UNL     1       4.861   8.762   2.067  0.00  0.00    +0.019 C 
ATOM     19  C   UNL     1       4.961   7.287   1.680  0.00  0.00    +0.089 C 
ATOM     20  N   UNL     1       3.836   7.115   0.767  0.00  0.00    -0.218 NA
ATOM     21  C   UNL     1       3.108   8.631  -0.843  0.00  0.00    +0.092 C 
ENDBRANCH  12  13
BRANCH   5  22
ATOM     22  C   UNL     1       2.701   7.310  -7.704  0.00  0.00    +0.392 C 
ATOM     23  O   UNL     1       2.958   6.603  -8.883  0.00  0.00    -0.240 OA
ATOM     24  O   UNL     1       2.234   8.480  -7.844  0.00  0.00    -0.240 OA
ENDBRANCH   5  22
BRANCH  11  25
ATOM     25  C   UNL     1      -0.806   5.927  -4.474  0.00  0.00    +0.086 C 
ATOM     26  C   UNL     1      -1.699   5.616  -5.710  0.00  0.00    +0.024 C 
ATOM     27  C   UNL     1      -1.799   6.963  -5.061  0.00  0.00    +0.024 C 
ENDBRANCH  11  25
BRANCH   1  29
ATOM     28  C   UNL     1      -0.529   5.467  -1.400  0.00  0.00    +0.253 C 
ATOM     29  O   UNL     1       0.038   6.256  -2.188  0.00  0.00    -0.469 OA
ENDBRANCH   1  29
TORSDOF 4
ENDMDL
MODEL 4
REMARK VINA RESULT:      -7.7      2.430      4.334
REMARK  Name = 
REMARK  4 active torsions:
REMARK  status: ('A' for Active; 'I' for Inactive)
REMARK    1  A    between atoms: O_2  and  C_3
REMARK    2  A    between atoms: C_4  and  N_5
REMARK    3  A    between atoms: C_20  and  C_21
REMARK    4  A    between atoms: N_25  and  C_26
REMARK                            x       y       z     vdW  Elec       q    Type
REMARK                         _______ _______ _______ _____ _____    ______ ____
ROOT
ATOM      1  C   UNL     1       2.047   6.212  -6.092  0.00  0.00    +0.170 A 
ATOM      2  C   UNL     1       1.513   6.454  -4.831  0.00  0.00    +0.099 A 
ATOM      3  C   UNL     1       2.312   7.008  -3.839  0.00  0.00    +0.060 A 
ATOM      4  C   UNL     1       1.994   6.787  -2.502  0.00  0.00    +0.205 A 
ATOM      5  C   UNL     1       1.168   5.711  -2.192  0.00  0.00    +0.136 A 
ATOM      6  C   UNL     1       0.222   5.385  -3.153  0.00  0.00    +0.086 A 
ATOM      7  O   UNL     1       2.861   7.087  -1.627  0.00  0.00    -0.286 OA
ATOM      8  C   UNL     1       3.555   7.468  -4.258  0.00  0.00    +0.036 A 
ATOM      9  C   UNL     1       4.201   6.929  -5.371  0.00  0.00    +0.157 A 
ATOM     10  F   UNL     1       5.494   6.512  -5.174  0.00  0.00    -0.203 F 
ATOM     11  N   UNL     1       0.386   5.826  -4.413  0.00  0.00    -0.325 N 
ATOM     12  C   UNL     1       3.416   6.295  -6.334  0.00  0.00    +0.112 A 
ENDROOT
BRANCH  12  13
ATOM     13  N   UNL     1       3.966   5.358  -7.272  0.00  0.00    -0.302 N 
ATOM     14  C   UNL     1       3.277   4.534  -8.216  0.00  0.00    +0.108 C 
ATOM     15  C   UNL     1       3.996   4.938  -9.618  0.00  0.00    +0.094 C 
ATOM     16  C   UNL     1       5.518   4.573  -8.948  0.00  0.00    +0.038 C 
ATOM     17  C   UNL     1       6.328   5.742  -9.729  0.00  0.00    +0.005 C 
ATOM     18  C   UNL     1       5.596   6.107 -10.969  0.00  0.00    +0.019 C 
ATOM     19  C   UNL     1       4.484   7.060 -10.537  0.00  0.00    +0.089 C 
ATOM     20  N   UNL     1       4.014   6.466  -9.290  0.00  0.00    -0.218 NA
ATOM     21  C   UNL     1       5.327   5.482  -7.637  0.00  0.00    +0.092 C 
ENDBRANCH  12  13
BRANCH   5  22
ATOM     22  C   UNL     1       1.309   5.013  -0.932  0.00  0.00    +0.392 C 
ATOM     23  O   UNL     1       2.400   4.150  -0.787  0.00  0.00    -0.240 OA
ATOM     24  O   UNL     1       0.973   5.669   0.100  0.00  0.00    -0.240 OA
ENDBRANCH   5  22
BRANCH  11  25
ATOM     25  C   UNL     1      -0.662   5.761  -5.426  0.00  0.00    +0.086 C 
ATOM     26  C   UNL     1      -1.635   6.961  -5.240  0.00  0.00    +0.024 C 
ATOM     27  C   UNL     1      -2.068   5.599  -4.791  0.00  0.00    +0.024 C 
ENDBRANCH  11  25
BRANCH   1  29
ATOM     28  C   UNL     1       0.803   6.566  -8.071  0.00  0.00    +0.253 C 
ATOM     29  O   UNL     1       1.150   5.880  -7.084  0.00  0.00    -0.469 OA
ENDBRANCH   1  29
TORSDOF 4
ENDMDL
MODEL 5
REMARK VINA RESULT:      -7.6      2.416      3.941
REMARK  Name = 
REMARK  4 active torsions:
REMARK  status: ('A' for Active; 'I' for Inactive)
REMARK    1  A    between atoms: O_2  and  C_3
REMARK    2  A    between atoms: C_4  and  N_5
REMARK    3  A    between atoms: C_20  and  C_21
REMARK    4  A    between atoms: N_25  and  C_26
REMARK                            x       y       z     vdW  Elec       q    Type
REMARK                         _______ _______ _______ _____ _____    ______ ____
ROOT
ATOM      1  C   UNL     1       1.222   6.239  -4.924  0.00  0.00    +0.170 A 
ATOM      2  C   UNL     1       1.665   6.516  -3.635  0.00  0.00    +0.099 A 
ATOM      3  C   UNL     1       2.877   7.167  -3.447  0.00  0.00    +0.060 A 
ATOM      4  C   UNL     1       3.565   6.998  -2.249  0.00  0.00    +0.205 A 
ATOM      5  C   UNL     1       3.254   5.894  -1.462  0.00  0.00    +0.136 A 
ATOM      6  C   UNL     1       1.937   5.463  -1.527  0.00  0.00    +0.086 A 
ATOM      7  O   UNL     1       4.769   7.394  -2.193  0.00  0.00    -0.286 OA
ATOM      8  C   UNL     1       3.469   7.676  -4.598  0.00  0.00    +0.036 A 
ATOM      9  C   UNL     1       3.232   7.117  -5.854  0.00  0.00    +0.157 A 
ATOM     10  F   UNL     1       4.345   6.787  -6.586  0.00  0.00    -0.203 F 
ATOM     11  N   UNL     1       1.171   5.846  -2.563  0.00  0.00    -0.325 N 
ATOM     12  C   UNL     1       2.055   6.389  -6.030  0.00  0.00    +0.112 A 
ENDROOT
BRANCH  12  13
ATOM     13  N   UNL     1       1.898   5.438  -7.093  0.00  0.00    -0.302 N 
ATOM     14  C   UNL     1       0.934   5.434  -8.149  0.00  0.00    +0.108 C 
ATOM     15  C   UNL     1       1.873   5.361  -9.475  0.00  0.00    +0.094 C 
ATOM     16  C   UNL     1       2.640   3.970  -8.863  0.00  0.00    +0.038 C 
ATOM     17  C   UNL     1       4.108   4.312  -9.463  0.00  0.00    +0.005 C 
ATOM     18  C   UNL     1       3.965   5.210 -10.638  0.00  0.00    +0.019 C 
ATOM     19  C   UNL     1       3.783   6.617 -10.074  0.00  0.00    +0.089 C 
ATOM     20  N   UNL     1       2.907   6.396  -8.928  0.00  0.00    -0.218 NA
ATOM     21  C   UNL     1       2.996   4.613  -7.434  0.00  0.00    +0.092 C 
ENDBRANCH  12  13
BRANCH   5  22
ATOM     22  C   UNL     1       4.264   5.272  -0.631  0.00  0.00    +0.392 C 
ATOM     23  O   UNL     1       4.711   5.983   0.488  0.00  0.00    -0.240 OA
ATOM     24  O   UNL     1       4.166   4.016  -0.494  0.00  0.00    -0.240 OA
ENDBRANCH   5  22
BRANCH  11  25
ATOM     25  C   UNL     1      -0.277   5.667  -2.598  0.00  0.00    +0.086 C 
ATOM     26  C   UNL     1      -0.961   6.844  -1.844  0.00  0.00    +0.024 C 
ATOM     27  C   UNL     1      -0.871   5.507  -1.174  0.00  0.00    +0.024 C 
ENDBRANCH  11  25
BRANCH   1  29
ATOM     28  C   UNL     1      -1.057   6.420  -5.523  0.00  0.00    +0.253 C 
ATOM     29  O   UNL     1      -0.079   5.804  -5.045  0.00  0.00    -0.469 OA
ENDBRANCH   1  29
TORSDOF 4
ENDMDL
MODEL 6
REMARK VINA RESULT:      -7.6      4.691      8.855
REMARK  Name = 
REMARK  4 active torsions:
REMARK  status: ('A' for Active; 'I' for Inactive)
REMARK    1  A    between atoms: O_2  and  C_3
REMARK    2  A    between atoms: C_4  and  N_5
REMARK    3  A    between atoms: C_20  and  C_21
REMARK    4  A    between atoms: N_25  and  C_26
REMARK                            x       y       z     vdW  Elec       q    Type
REMARK                         _______ _______ _______ _____ _____    ______ ____
ROOT
ATOM      1  C   UNL     1       1.933   5.261  -9.820  0.00  0.00    +0.170 A 
ATOM      2  C   UNL     1       3.130   5.294 -10.527  0.00  0.00    +0.099 A 
ATOM      3  C   UNL     1       4.316   4.946  -9.893  0.00  0.00    +0.060 A 
ATOM      4  C   UNL     1       5.522   5.445 -10.377  0.00  0.00    +0.205 A 
ATOM      5  C   UNL     1       5.488   6.575 -11.188  0.00  0.00    +0.136 A 
ATOM      6  C   UNL     1       4.358   6.710 -11.981  0.00  0.00    +0.086 A 
ATOM      7  O   UNL     1       6.552   5.320  -9.648  0.00  0.00    -0.286 OA
ATOM      8  C   UNL     1       4.177   4.389  -8.627  0.00  0.00    +0.036 A 
ATOM      9  C   UNL     1       3.079   4.675  -7.815  0.00  0.00    +0.157 A 
ATOM     10  F   UNL     1       3.366   5.103  -6.543  0.00  0.00    -0.203 F 
ATOM     11  N   UNL     1       3.250   6.014 -11.671  0.00  0.00    -0.325 N 
ATOM     12  C   UNL     1       1.907   5.107  -8.435  0.00  0.00    +0.112 A 
ENDROOT
BRANCH  12  13
ATOM     13  N   UNL     1       0.885   5.820  -7.724  0.00  0.00    -0.302 N 
ATOM     14  C   UNL     1      -0.464   5.421  -7.467  0.00  0.00    +0.108 C 
ATOM     15  C   UNL     1      -0.557   5.538  -5.847  0.00  0.00    +0.094 C 
ATOM     16  C   UNL     1      -0.027   7.154  -5.928  0.00  0.00    +0.038 C 
ATOM     17  C   UNL     1       0.827   7.118  -4.549  0.00  0.00    +0.005 C 
ATOM     18  C   UNL     1       0.292   6.052  -3.664  0.00  0.00    +0.019 C 
ATOM     19  C   UNL     1       0.900   4.744  -4.165  0.00  0.00    +0.089 C 
ATOM     20  N   UNL     1       0.848   4.896  -5.615  0.00  0.00    -0.218 NA
ATOM     21  C   UNL     1       1.269   6.841  -6.824  0.00  0.00    +0.092 C 
ENDBRANCH  12  13
BRANCH   5  22
ATOM     22  C   UNL     1       6.587   7.518 -11.185  0.00  0.00    +0.392 C 
ATOM     23  O   UNL     1       7.818   7.079 -11.684  0.00  0.00    -0.240 OA
ATOM     24  O   UNL     1       6.278   8.722 -11.434  0.00  0.00    -0.240 OA
ENDBRANCH   5  22
BRANCH  11  25
ATOM     25  C   UNL     1       2.108   5.884 -12.570  0.00  0.00    +0.086 C 
ATOM     26  C   UNL     1       2.454   4.870 -13.700  0.00  0.00    +0.024 C 
ATOM     27  C   UNL     1       2.457   6.336 -14.012  0.00  0.00    +0.024 C 
ENDBRANCH  11  25
BRANCH   1  29
ATOM     28  C   UNL     1      -0.054   4.508 -10.856  0.00  0.00    +0.253 C 
ATOM     29  O   UNL     1       0.780   5.394 -10.560  0.00  0.00    -0.469 OA
ENDBRANCH   1  29
TORSDOF 4
ENDMDL
MODEL 7
REMARK VINA RESULT:      -7.6      3.618      8.409
REMARK  Name = 
REMARK  4 active torsions:
REMARK  status: ('A' for Active; 'I' for Inactive)
REMARK    1  A    between atoms: O_2  and  C_3
REMARK    2  A    between atoms: C_4  and  N_5
REMARK    3  A    between atoms: C_20  and  C_21
REMARK    4  A    between atoms: N_25  and  C_26
REMARK                            x       y       z     vdW  Elec       q    Type
REMARK                         _______ _______ _______ _____ _____    ______ ____
ROOT
ATOM      1  C   UNL     1       2.554   5.911  -7.592  0.00  0.00    +0.170 A 
ATOM      2  C   UNL     1       3.140   5.767  -8.845  0.00  0.00    +0.099 A 
ATOM      3  C   UNL     1       4.416   5.226  -8.951  0.00  0.00    +0.060 A 
ATOM      4  C   UNL     1       5.199   5.537 -10.059  0.00  0.00    +0.205 A 
ATOM      5  C   UNL     1       4.875   6.671 -10.797  0.00  0.00    +0.136 A 
ATOM      6  C   UNL     1       3.526   6.993 -10.838  0.00  0.00    +0.086 A 
ATOM      7  O   UNL     1       6.431   5.240 -10.018  0.00  0.00    -0.286 OA
ATOM      8  C   UNL     1       4.934   4.679  -7.783  0.00  0.00    +0.036 A 
ATOM      9  C   UNL     1       4.532   5.122  -6.523  0.00  0.00    +0.157 A 
ATOM     10  F   UNL     1       5.537   5.480  -5.660  0.00  0.00    -0.203 F 
ATOM     11  N   UNL     1       2.698   6.476  -9.914  0.00  0.00    -0.325 N 
ATOM     12  C   UNL     1       3.286   5.742  -6.419  0.00  0.00    +0.112 A 
ENDROOT
BRANCH  12  13
ATOM     13  N   UNL     1       2.948   6.596  -5.316  0.00  0.00    -0.302 N 
ATOM     14  C   UNL     1       1.769   6.580  -4.507  0.00  0.00    +0.108 C 
ATOM     15  C   UNL     1       2.382   6.444  -3.006  0.00  0.00    +0.094 C 
ATOM     16  C   UNL     1       3.353   7.817  -3.271  0.00  0.00    +0.038 C 
ATOM     17  C   UNL     1       4.621   7.295  -2.404  0.00  0.00    +0.005 C 
ATOM     18  C   UNL     1       4.158   6.303  -1.399  0.00  0.00    +0.019 C 
ATOM     19  C   UNL     1       4.024   4.977  -2.146  0.00  0.00    +0.089 C 
ATOM     20  N   UNL     1       3.449   5.382  -3.425  0.00  0.00    -0.218 NA
ATOM     21  C   UNL     1       3.986   7.288  -4.650  0.00  0.00    +0.092 C 
ENDBRANCH  12  13
BRANCH   5  22
ATOM     22  C   UNL     1       5.904   7.428 -11.476  0.00  0.00    +0.392 C 
ATOM     23  O   UNL     1       6.179   7.100 -12.808  0.00  0.00    -0.240 OA
ATOM     24  O   UNL     1       5.967   8.659 -11.179  0.00  0.00    -0.240 OA
ENDBRANCH   5  22
BRANCH  11  25
ATOM     25  C   UNL     1       1.244   6.540 -10.015  0.00  0.00    +0.086 C 
ATOM     26  C   UNL     1       0.739   5.392 -10.937  0.00  0.00    +0.024 C 
ATOM     27  C   UNL     1       0.780   6.790 -11.474  0.00  0.00    +0.024 C 
ENDBRANCH  11  25
BRANCH   1  29
ATOM     28  C   UNL     1       0.248   5.503  -7.268  0.00  0.00    +0.253 C 
ATOM     29  O   UNL     1       1.215   6.235  -7.575  0.00  0.00    -0.469 OA
ENDBRANCH   1  29
TORSDOF 4
ENDMDL
MODEL 8
REMARK VINA RESULT:      -7.2      2.707      7.454
REMARK  Name = 
REMARK  4 active torsions:
REMARK  status: ('A' for Active; 'I' for Inactive)
REMARK    1  A    between atoms: O_2  and  C_3
REMARK    2  A    between atoms: C_4  and  N_5
REMARK    3  A    between atoms: C_20  and  C_21
REMARK    4  A    between atoms: N_25  and  C_26
REMARK                            x       y       z     vdW  Elec       q    Type
REMARK                         _______ _______ _______ _____ _____    ______ ____
ROOT
ATOM      1  C   UNL     1       0.557   6.601  -1.217  0.00  0.00    +0.170 A 
ATOM      2  C   UNL     1       0.579   6.072  -2.503  0.00  0.00    +0.099 A 
ATOM      3  C   UNL     1       1.728   5.448  -2.973  0.00  0.00    +0.060 A 
ATOM      4  C   UNL     1       1.960   5.384  -4.343  0.00  0.00    +0.205 A 
ATOM      5  C   UNL     1       1.285   6.280  -5.167  0.00  0.00    +0.136 A 
ATOM      6  C   UNL     1       0.024   6.660  -4.733  0.00  0.00    +0.086 A 
ATOM      7  O   UNL     1       3.114   5.037  -4.736  0.00  0.00    -0.286 OA
ATOM      8  C   UNL     1       2.718   5.223  -2.023  0.00  0.00    +0.036 A 
ATOM      9  C   UNL     1       2.846   6.027  -0.891  0.00  0.00    +0.157 A 
ATOM     10  F   UNL     1       4.093   6.552  -0.663  0.00  0.00    -0.203 F 
ATOM     11  N   UNL     1      -0.311   6.476  -3.444  0.00  0.00    -0.325 N 
ATOM     12  C   UNL     1       1.719   6.726  -0.459  0.00  0.00    +0.112 A 
ENDROOT
BRANCH  12  13
ATOM     13  N   UNL     1       1.814   7.876   0.395  0.00  0.00    -0.302 N 
ATOM     14  C   UNL     1       1.310   8.043   1.722  0.00  0.00    +0.108 C 
ATOM     15  C   UNL     1       2.643   8.478   2.547  0.00  0.00    +0.094 C 
ATOM     16  C   UNL     1       2.913   9.751   1.449  0.00  0.00    +0.038 C 
ATOM     17  C   UNL     1       4.532   9.662   1.485  0.00  0.00    +0.005 C 
ATOM     18  C   UNL     1       4.964   9.040   2.763  0.00  0.00    +0.019 C 
ATOM     19  C   UNL     1       4.808   7.532   2.573  0.00  0.00    +0.089 C 
ATOM     20  N   UNL     1       3.554   7.427   1.835  0.00  0.00    -0.218 NA
ATOM     21  C   UNL     1       2.820   8.835   0.132  0.00  0.00    +0.092 C 
ENDBRANCH  12  13
BRANCH   5  22
ATOM     22  C   UNL     1       1.890   6.751  -6.396  0.00  0.00    +0.392 C 
ATOM     23  O   UNL     1       3.066   7.501  -6.294  0.00  0.00    -0.240 OA
ATOM     24  O   UNL     1       1.814   5.961  -7.384  0.00  0.00    -0.240 OA
ENDBRANCH   5  22
BRANCH  11  25
ATOM     25  C   UNL     1      -1.678   6.598  -2.947  0.00  0.00    +0.086 C 
ATOM     26  C   UNL     1      -2.495   5.343  -3.372  0.00  0.00    +0.024 C 
ATOM     27  C   UNL     1      -2.710   6.633  -4.103  0.00  0.00    +0.024 C 
ENDBRANCH  11  25
BRANCH   1  29
ATOM     28  C   UNL     1      -1.376   6.440   0.134  0.00  0.00    +0.253 C 
ATOM     29  O   UNL     1      -0.672   6.997  -0.738  0.00  0.00    -0.469 OA
ENDBRANCH   1  29
TORSDOF 4
ENDMDL
MODEL 9
REMARK VINA RESULT:      -7.0      2.569      6.678
REMARK  Name = 
REMARK  4 active torsions:
REMARK  status: ('A' for Active; 'I' for Inactive)
REMARK    1  A    between atoms: O_2  and  C_3
REMARK    2  A    between atoms: C_4  and  N_5
REMARK    3  A    between atoms: C_20  and  C_21
REMARK    4  A    between atoms: N_25  and  C_26
REMARK                            x       y       z     vdW  Elec       q    Type
REMARK                         _______ _______ _______ _____ _____    ______ ____
ROOT
ATOM      1  C   UNL     1       1.928   6.658  -4.439  0.00  0.00    +0.170 A 
ATOM      2  C   UNL     1       2.848   6.770  -5.476  0.00  0.00    +0.099 A 
ATOM      3  C   UNL     1       2.403   7.005  -6.771  0.00  0.00    +0.060 A 
ATOM      4  C   UNL     1       3.196   6.619  -7.847  0.00  0.00    +0.205 A 
ATOM      5  C   UNL     1       4.182   5.661  -7.627  0.00  0.00    +0.136 A 
ATOM      6  C   UNL     1       4.751   5.667  -6.362  0.00  0.00    +0.086 A 
ATOM      7  O   UNL     1       2.672   6.615  -9.002  0.00  0.00    -0.286 OA
ATOM      8  C   UNL     1       1.053   7.312  -6.894  0.00  0.00    +0.036 A 
ATOM      9  C   UNL     1       0.110   6.867  -5.966  0.00  0.00    +0.157 A 
ATOM     10  F   UNL     1      -0.979   6.211  -6.481  0.00  0.00    -0.203 F 
ATOM     11  N   UNL     1       4.107   6.280  -5.354  0.00  0.00    -0.325 N 
ATOM     12  C   UNL     1       0.561   6.548  -4.685  0.00  0.00    +0.112 A 
ENDROOT
BRANCH  12  13
ATOM     13  N   UNL     1      -0.190   5.703  -3.801  0.00  0.00    -0.302 N 
ATOM     14  C   UNL     1       0.257   5.028  -2.622  0.00  0.00    +0.108 C 
ATOM     15  C   UNL     1      -0.793   5.561  -1.499  0.00  0.00    +0.094 C 
ATOM     16  C   UNL     1      -2.097   5.052  -2.468  0.00  0.00    +0.038 C 
ATOM     17  C   UNL     1      -3.092   6.266  -2.060  0.00  0.00    +0.005 C 
ATOM     18  C   UNL     1      -2.695   6.807  -0.735  0.00  0.00    +0.019 C 
ATOM     19  C   UNL     1      -1.524   7.752  -0.999  0.00  0.00    +0.089 C 
ATOM     20  N   UNL     1      -0.752   7.037  -2.009  0.00  0.00    -0.218 NA
ATOM     21  C   UNL     1      -1.601   5.808  -3.795  0.00  0.00    +0.092 C 
ENDBRANCH  12  13
BRANCH   5  22
ATOM     22  C   UNL     1       4.569   4.746  -8.680  0.00  0.00    +0.392 C 
ATOM     23  O   UNL     1       3.669   3.731  -9.020  0.00  0.00    -0.240 OA
ATOM     24  O   UNL     1       5.225   5.257  -9.638  0.00  0.00    -0.240 OA
ENDBRANCH   5  22
BRANCH  11  25
ATOM     25  C   UNL     1       4.727   6.566  -4.064  0.00  0.00    +0.086 C 
ATOM     26  C   UNL     1       5.312   8.008  -4.081  0.00  0.00    +0.024 C 
ATOM     27  C   UNL     1       6.246   6.843  -4.205  0.00  0.00    +0.024 C 
ENDBRANCH  11  25
BRANCH   1  29
ATOM     28  C   UNL     1       2.522   7.612  -2.360  0.00  0.00    +0.253 C 
ATOM     29  O   UNL     1       2.441   6.655  -3.162  0.00  0.00    -0.469 OA
ENDBRANCH   1  29
TORSDOF 4
ENDMDL
