MODEL 1
REMARK VINA RESULT:      -7.0      0.000      0.000
REMARK  Name = 
REMARK  6 active torsions:
REMARK  status: ('A' for Active; 'I' for Inactive)
REMARK    1  A    between atoms: C_7  and  O_8
REMARK    2  A    between atoms: O_8  and  C_9
REMARK    3  A    between atoms: C_9  and  C_10
REMARK    4  A    between atoms: C_10  and  C_11
REMARK    5  A    between atoms: C_11  and  C_12
REMARK    6  A    between atoms: C_12  and  C_15
REMARK                            x       y       z     vdW  Elec       q    Type
REMARK                         _______ _______ _______ _____ _____    ______ ____
ROOT
ATOM      1  O   UNL     1       3.262   6.644  -8.467  0.00  0.00    -0.476 OA
ENDROOT
BRANCH   1   5
ATOM      2  C   UNL     1      -1.163   5.273  -7.010  0.00  0.00    +0.031 C 
ATOM      3  C   UNL     1       0.323   5.178  -6.946  0.00  0.00    -0.019 A 
ATOM      4  C   UNL     1       1.154   5.598  -7.952  0.00  0.00    +0.032 A 
ATOM      5  C   UNL     1       2.540   5.640  -7.832  0.00  0.00    +0.134 A 
ATOM      6  C   UNL     1       3.050   5.206  -6.611  0.00  0.00    +0.012 A 
ATOM      7  C   UNL     1       4.426   5.616  -6.189  0.00  0.00    +0.034 C 
ATOM      8  C   UNL     1       2.212   4.811  -5.573  0.00  0.00    -0.002 A 
ATOM      9  C   UNL     1       0.854   4.768  -5.749  0.00  0.00    -0.004 A 
ENDBRANCH   1   5
BRANCH   1  10
ATOM     10  C   UNL     1       3.696   6.586  -9.803  0.00  0.00    +0.205 C 
BRANCH  10  11
ATOM     11  C   UNL     1       4.866   5.611  -9.831  0.00  0.00    +0.048 C 
BRANCH  11  12
ATOM     12  C   UNL     1       5.584   5.611 -11.146  0.00  0.00    +0.015 C 
BRANCH  12  13
ATOM     13  C   UNL     1       7.007   6.111 -10.922  0.00  0.00    +0.094 C 
ATOM     14  C   UNL     1       7.374   5.715  -9.503  0.00  0.00    +0.011 C 
ATOM     15  C   UNL     1       7.093   7.614 -11.008  0.00  0.00    +0.011 C 
BRANCH  13  16
ATOM     16  C   UNL     1       7.960   5.486 -11.886  0.00  0.00    +0.364 C 
ATOM     17  O   UNL     1       7.507   4.589 -12.842  0.00  0.00    -0.246 OA
ATOM     18  O   UNL     1       9.168   5.825 -11.941  0.00  0.00    -0.246 OA
ENDBRANCH  13  16
ENDBRANCH  12  13
ENDBRANCH  11  12
ENDBRANCH  10  11
ENDBRANCH   1  10
TORSDOF 6
ENDMDL
MODEL 2
REMARK VINA RESULT:      -7.0      4.436      8.163
REMARK  Name = 
REMARK  6 active torsions:
REMARK  status: ('A' for Active; 'I' for Inactive)
REMARK    1  A    between atoms: C_7  and  O_8
REMARK    2  A    between atoms: O_8  and  C_9
REMARK    3  A    between atoms: C_9  and  C_10
REMARK    4  A    between atoms: C_10  and  C_11
REMARK    5  A    between atoms: C_11  and  C_12
REMARK    6  A    between atoms: C_12  and  C_15
REMARK                            x       y       z     vdW  Elec       q    Type
REMARK                         _______ _______ _______ _____ _____    ______ ____
ROOT
ATOM      1  O   UNL     1       2.137   4.659  -6.582  0.00  0.00    -0.476 OA
ENDROOT
BRANCH   1   5
ATOM      2  C   UNL     1       4.207   5.008  -2.202  0.00  0.00    +0.031 C 
ATOM      3  C   UNL     1       4.053   5.455  -3.617  0.00  0.00    -0.019 A 
ATOM      4  C   UNL     1       3.512   4.673  -4.605  0.00  0.00    +0.032 A 
ATOM      5  C   UNL     1       3.240   5.140  -5.887  0.00  0.00    +0.134 A 
ATOM      6  C   UNL     1       3.571   6.472  -6.122  0.00  0.00    +0.012 A 
ATOM      7  C   UNL     1       2.934   7.209  -7.258  0.00  0.00    +0.034 C 
ATOM      8  C   UNL     1       4.087   7.282  -5.116  0.00  0.00    -0.002 A 
ATOM      9  C   UNL     1       4.357   6.767  -3.875  0.00  0.00    -0.004 A 
ENDBRANCH   1   5
BRANCH   1  10
ATOM     10  C   UNL     1       0.937   4.243  -5.979  0.00  0.00    +0.205 C 
BRANCH  10  11
ATOM     11  C   UNL     1      -0.050   5.390  -6.157  0.00  0.00    +0.048 C 
BRANCH  11  12
ATOM     12  C   UNL     1      -0.113   6.287  -4.957  0.00  0.00    +0.015 C 
BRANCH  12  13
ATOM     13  C   UNL     1      -1.540   6.281  -4.421  0.00  0.00    +0.094 C 
ATOM     14  C   UNL     1      -2.414   5.775  -5.554  0.00  0.00    +0.011 C 
ATOM     15  C   UNL     1      -2.013   7.669  -4.072  0.00  0.00    +0.011 C 
BRANCH  13  16
ATOM     16  C   UNL     1      -1.671   5.380  -3.237  0.00  0.00    +0.364 C 
ATOM     17  O   UNL     1      -2.877   4.755  -2.959  0.00  0.00    -0.246 OA
ATOM     18  O   UNL     1      -0.684   5.073  -2.525  0.00  0.00    -0.246 OA
ENDBRANCH  13  16
ENDBRANCH  12  13
ENDBRANCH  11  12
ENDBRANCH  10  11
ENDBRANCH   1  10
TORSDOF 6
ENDMDL
MODEL 3
REMARK VINA RESULT:      -6.8      1.326      2.270
REMARK  Name = 
REMARK  6 active torsions:
REMARK  status: ('A' for Active; 'I' for Inactive)
REMARK    1  A    between atoms: C_7  and  O_8
REMARK    2  A    between atoms: O_8  and  C_9
REMARK    3  A    between atoms: C_9  and  C_10
REMARK    4  A    between atoms: C_10  and  C_11
REMARK    5  A    between atoms: C_11  and  C_12
REMARK    6  A    between atoms: C_12  and  C_15
REMARK                            x       y       z     vdW  Elec       q    Type
REMARK                         _______ _______ _______ _____ _____    ______ ____
ROOT
ATOM      1  O   UNL     1       3.224   6.333  -8.621  0.00  0.00    -0.476 OA
ENDROOT
BRANCH   1   5
ATOM      2  C   UNL     1       0.376   6.754  -4.709  0.00  0.00    +0.031 C 
ATOM      3  C   UNL     1       0.567   6.529  -6.171  0.00  0.00    -0.019 A 
ATOM      4  C   UNL     1       1.690   6.914  -6.857  0.00  0.00    +0.032 A 
ATOM      5  C   UNL     1       1.926   6.578  -8.186  0.00  0.00    +0.134 A 
ATOM      6  C   UNL     1       0.929   5.826  -8.801  0.00  0.00    +0.012 A 
ATOM      7  C   UNL     1       1.244   5.031 -10.030  0.00  0.00    +0.034 C 
ATOM      8  C   UNL     1      -0.197   5.402  -8.103  0.00  0.00    -0.002 A 
ATOM      9  C   UNL     1      -0.393   5.778  -6.800  0.00  0.00    -0.004 A 
ENDBRANCH   1   5
BRANCH   1  10
ATOM     10  C   UNL     1       4.188   5.624  -7.882  0.00  0.00    +0.205 C 
BRANCH  10  11
ATOM     11  C   UNL     1       5.375   5.419  -8.814  0.00  0.00    +0.048 C 
BRANCH  11  12
ATOM     12  C   UNL     1       5.122   5.951 -10.193  0.00  0.00    +0.015 C 
BRANCH  12  13
ATOM     13  C   UNL     1       6.464   6.154 -10.889  0.00  0.00    +0.094 C 
ATOM     14  C   UNL     1       7.526   5.772  -9.874  0.00  0.00    +0.011 C 
ATOM     15  C   UNL     1       6.690   7.598 -11.257  0.00  0.00    +0.011 C 
BRANCH  13  16
ATOM     16  C   UNL     1       6.584   5.290 -12.099  0.00  0.00    +0.364 C 
ATOM     17  O   UNL     1       7.785   4.667 -12.404  0.00  0.00    -0.246 OA
ATOM     18  O   UNL     1       5.591   5.009 -12.815  0.00  0.00    -0.246 OA
ENDBRANCH  13  16
ENDBRANCH  12  13
ENDBRANCH  11  12
ENDBRANCH  10  11
ENDBRANCH   1  10
TORSDOF 6
ENDMDL
MODEL 4
REMARK VINA RESULT:      -6.8      2.397      3.852
REMARK  Name = 
REMARK  6 active torsions:
REMARK  status: ('A' for Active; 'I' for Inactive)
REMARK    1  A    between atoms: C_7  and  O_8
REMARK    2  A    between atoms: O_8  and  C_9
REMARK    3  A    between atoms: C_9  and  C_10
REMARK    4  A    between atoms: C_10  and  C_11
REMARK    5  A    between atoms: C_11  and  C_12
REMARK    6  A    between atoms: C_12  and  C_15
REMARK                            x       y       z     vdW  Elec       q    Type
REMARK                         _______ _______ _______ _____ _____    ______ ____
ROOT
ATOM      1  O   UNL     1       2.603   5.574  -9.882  0.00  0.00    -0.476 OA
ENDROOT
BRANCH   1   5
ATOM      2  C   UNL     1       0.976   7.797 -13.882  0.00  0.00    +0.031 C 
ATOM      3  C   UNL     1       0.745   7.015 -12.633  0.00  0.00    -0.019 A 
ATOM      4  C   UNL     1       1.718   6.279 -12.009  0.00  0.00    +0.032 A 
ATOM      5  C   UNL     1       1.538   5.668 -10.771  0.00  0.00    +0.134 A 
ATOM      6  C   UNL     1       0.282   5.837 -10.196  0.00  0.00    +0.012 A 
ATOM      7  C   UNL     1       0.102   5.640  -8.723  0.00  0.00    +0.034 C 
ATOM      8  C   UNL     1      -0.699   6.611 -10.807  0.00  0.00    -0.002 A 
ATOM      9  C   UNL     1      -0.480   7.174 -12.037  0.00  0.00    -0.004 A 
ENDBRANCH   1   5
BRANCH   1  10
ATOM     10  C   UNL     1       3.673   6.485  -9.825  0.00  0.00    +0.205 C 
BRANCH  10  11
ATOM     11  C   UNL     1       4.945   5.648  -9.799  0.00  0.00    +0.048 C 
BRANCH  11  12
ATOM     12  C   UNL     1       5.626   5.593 -11.133  0.00  0.00    +0.015 C 
BRANCH  12  13
ATOM     13  C   UNL     1       7.045   6.128 -10.977  0.00  0.00    +0.094 C 
ATOM     14  C   UNL     1       7.475   5.773  -9.564  0.00  0.00    +0.011 C 
ATOM     15  C   UNL     1       7.095   7.629 -11.100  0.00  0.00    +0.011 C 
BRANCH  13  16
ATOM     16  C   UNL     1       7.973   5.499 -11.963  0.00  0.00    +0.364 C 
ATOM     17  O   UNL     1       9.304   5.885 -12.022  0.00  0.00    -0.246 OA
ATOM     18  O   UNL     1       7.619   4.537 -12.688  0.00  0.00    -0.246 OA
ENDBRANCH  13  16
ENDBRANCH  12  13
ENDBRANCH  11  12
ENDBRANCH  10  11
ENDBRANCH   1  10
TORSDOF 6
ENDMDL
MODEL 5
REMARK VINA RESULT:      -6.8      1.908      7.021
REMARK  Name = 
REMARK  6 active torsions:
REMARK  status: ('A' for Active; 'I' for Inactive)
REMARK    1  A    between atoms: C_7  and  O_8
REMARK    2  A    between atoms: O_8  and  C_9
REMARK    3  A    between atoms: C_9  and  C_10
REMARK    4  A    between atoms: C_10  and  C_11
REMARK    5  A    between atoms: C_11  and  C_12
REMARK    6  A    between atoms: C_12  and  C_15
REMARK                            x       y       z     vdW  Elec       q    Type
REMARK                         _______ _______ _______ _____ _____    ______ ____
ROOT
ATOM      1  O   UNL     1       5.239   7.062 -10.439  0.00  0.00    -0.476 OA
ENDROOT
BRANCH   1   5
ATOM      2  C   UNL     1       7.075   6.534 -14.904  0.00  0.00    +0.031 C 
ATOM      3  C   UNL     1       7.228   6.562 -13.420  0.00  0.00    -0.019 A 
ATOM      4  C   UNL     1       6.340   7.178 -12.578  0.00  0.00    +0.032 A 
ATOM      5  C   UNL     1       6.407   7.082 -11.192  0.00  0.00    +0.134 A 
ATOM      6  C   UNL     1       7.461   6.321 -10.694  0.00  0.00    +0.012 A 
ATOM      7  C   UNL     1       7.393   5.768  -9.305  0.00  0.00    +0.034 C 
ATOM      8  C   UNL     1       8.347   5.663 -11.542  0.00  0.00    -0.002 A 
ATOM      9  C   UNL     1       8.250   5.808 -12.902  0.00  0.00    -0.004 A 
ENDBRANCH   1   5
BRANCH   1  10
ATOM     10  C   UNL     1       4.037   6.462 -10.853  0.00  0.00    +0.205 C 
BRANCH  10  11
ATOM     11  C   UNL     1       3.519   5.672  -9.658  0.00  0.00    +0.048 C 
BRANCH  11  12
ATOM     12  C   UNL     1       2.078   5.956  -9.361  0.00  0.00    +0.015 C 
BRANCH  12  13
ATOM     13  C   UNL     1       1.900   6.036  -7.849  0.00  0.00    +0.094 C 
ATOM     14  C   UNL     1       2.741   4.913  -7.267  0.00  0.00    +0.011 C 
ATOM     15  C   UNL     1       0.471   5.788  -7.439  0.00  0.00    +0.011 C 
BRANCH  13  16
ATOM     16  C   UNL     1       2.367   7.349  -7.315  0.00  0.00    +0.364 C 
ATOM     17  O   UNL     1       3.222   7.402  -6.224  0.00  0.00    -0.246 OA
ATOM     18  O   UNL     1       2.098   8.433  -7.890  0.00  0.00    -0.246 OA
ENDBRANCH  13  16
ENDBRANCH  12  13
ENDBRANCH  11  12
ENDBRANCH  10  11
ENDBRANCH   1  10
TORSDOF 6
ENDMDL
MODEL 6
REMARK VINA RESULT:      -6.7      1.301      1.892
REMARK  Name = 
REMARK  6 active torsions:
REMARK  status: ('A' for Active; 'I' for Inactive)
REMARK    1  A    between atoms: C_7  and  O_8
REMARK    2  A    between atoms: O_8  and  C_9
REMARK    3  A    between atoms: C_9  and  C_10
REMARK    4  A    between atoms: C_10  and  C_11
REMARK    5  A    between atoms: C_11  and  C_12
REMARK    6  A    between atoms: C_12  and  C_15
REMARK                            x       y       z     vdW  Elec       q    Type
REMARK                         _______ _______ _______ _____ _____    ______ ____
ROOT
ATOM      1  O   UNL     1       3.551   4.753  -7.475  0.00  0.00    -0.476 OA
ENDROOT
BRANCH   1   5
ATOM      2  C   UNL     1      -0.089   5.963 -10.454  0.00  0.00    +0.031 C 
ATOM      3  C   UNL     1       0.419   5.420  -9.162  0.00  0.00    -0.019 A 
ATOM      4  C   UNL     1       1.688   4.929  -8.992  0.00  0.00    +0.032 A 
ATOM      5  C   UNL     1       2.204   4.556  -7.755  0.00  0.00    +0.134 A 
ATOM      6  C   UNL     1       1.335   4.695  -6.676  0.00  0.00    +0.012 A 
ATOM      7  C   UNL     1       1.879   4.771  -5.284  0.00  0.00    +0.034 C 
ATOM      8  C   UNL     1       0.058   5.224  -6.835  0.00  0.00    -0.002 A 
ATOM      9  C   UNL     1      -0.411   5.557  -8.079  0.00  0.00    -0.004 A 
ENDBRANCH   1   5
BRANCH   1  10
ATOM     10  C   UNL     1       4.298   5.863  -7.910  0.00  0.00    +0.205 C 
BRANCH  10  11
ATOM     11  C   UNL     1       5.390   5.313  -8.819  0.00  0.00    +0.048 C 
BRANCH  11  12
ATOM     12  C   UNL     1       5.261   5.798 -10.231  0.00  0.00    +0.015 C 
BRANCH  12  13
ATOM     13  C   UNL     1       6.656   6.085 -10.776  0.00  0.00    +0.094 C 
ATOM     14  C   UNL     1       7.625   5.710  -9.669  0.00  0.00    +0.011 C 
ATOM     15  C   UNL     1       6.852   7.550 -11.070  0.00  0.00    +0.011 C 
BRANCH  13  16
ATOM     16  C   UNL     1       6.939   5.273 -11.996  0.00  0.00    +0.364 C 
ATOM     17  O   UNL     1       5.927   4.980 -12.897  0.00  0.00    -0.246 OA
ATOM     18  O   UNL     1       8.105   4.923 -12.305  0.00  0.00    -0.246 OA
ENDBRANCH  13  16
ENDBRANCH  12  13
ENDBRANCH  11  12
ENDBRANCH  10  11
ENDBRANCH   1  10
TORSDOF 6
ENDMDL
MODEL 7
REMARK VINA RESULT:      -6.7      1.603      2.759
REMARK  Name = 
REMARK  6 active torsions:
REMARK  status: ('A' for Active; 'I' for Inactive)
REMARK    1  A    between atoms: C_7  and  O_8
REMARK    2  A    between atoms: O_8  and  C_9
REMARK    3  A    between atoms: C_9  and  C_10
REMARK    4  A    between atoms: C_10  and  C_11
REMARK    5  A    between atoms: C_11  and  C_12
REMARK    6  A    between atoms: C_12  and  C_15
REMARK                            x       y       z     vdW  Elec       q    Type
REMARK                         _______ _______ _______ _____ _____    ______ ____
ROOT
ATOM      1  O   UNL     1       2.538   6.140  -7.848  0.00  0.00    -0.476 OA
ENDROOT
BRANCH   1   5
ATOM      2  C   UNL     1       5.358   7.768  -4.245  0.00  0.00    +0.031 C 
ATOM      3  C   UNL     1       4.344   6.818  -4.786  0.00  0.00    -0.019 A 
ATOM      4  C   UNL     1       3.568   7.081  -5.885  0.00  0.00    +0.032 A 
ATOM      5  C   UNL     1       2.727   6.140  -6.471  0.00  0.00    +0.134 A 
ATOM      6  C   UNL     1       2.705   4.891  -5.856  0.00  0.00    +0.012 A 
ATOM      7  C   UNL     1       2.227   3.694  -6.616  0.00  0.00    +0.034 C 
ATOM      8  C   UNL     1       3.515   4.604  -4.762  0.00  0.00    -0.002 A 
ATOM      9  C   UNL     1       4.310   5.574  -4.209  0.00  0.00    -0.004 A 
ENDBRANCH   1   5
BRANCH   1  10
ATOM     10  C   UNL     1       3.284   6.915  -8.753  0.00  0.00    +0.205 C 
BRANCH  10  11
ATOM     11  C   UNL     1       4.440   6.037  -9.215  0.00  0.00    +0.048 C 
BRANCH  11  12
ATOM     12  C   UNL     1       4.615   6.053 -10.703  0.00  0.00    +0.015 C 
BRANCH  12  13
ATOM     13  C   UNL     1       6.103   6.168 -11.016  0.00  0.00    +0.094 C 
ATOM     14  C   UNL     1       6.832   5.787  -9.740  0.00  0.00    +0.011 C 
ATOM     15  C   UNL     1       6.497   7.583 -11.355  0.00  0.00    +0.011 C 
BRANCH  13  16
ATOM     16  C   UNL     1       6.498   5.246 -12.122  0.00  0.00    +0.364 C 
ATOM     17  O   UNL     1       5.616   4.969 -13.156  0.00  0.00    -0.246 OA
ATOM     18  O   UNL     1       7.660   4.781 -12.215  0.00  0.00    -0.246 OA
ENDBRANCH  13  16
ENDBRANCH  12  13
ENDBRANCH  11  12
ENDBRANCH  10  11
ENDBRANCH   1  10
TORSDOF 6
ENDMDL
MODEL 8
REMARK VINA RESULT:      -6.6      2.729      6.752
REMARK  Name = 
REMARK  6 active torsions:
REMARK  status: ('A' for Active; 'I' for Inactive)
REMARK    1  A    between atoms: C_7  and  O_8
REMARK    2  A    between atoms: O_8  and  C_9
REMARK    3  A    between atoms: C_9  and  C_10
REMARK    4  A    between atoms: C_10  and  C_11
REMARK    5  A    between atoms: C_11  and  C_12
REMARK    6  A    between atoms: C_12  and  C_15
REMARK                            x       y       z     vdW  Elec       q    Type
REMARK                         _______ _______ _______ _____ _____    ______ ____
ROOT
ATOM      1  O   UNL     1       4.148   6.579 -11.496  0.00  0.00    -0.476 OA
ENDROOT
BRANCH   1   5
ATOM      2  C   UNL     1       8.884   5.939 -12.365  0.00  0.00    +0.031 C 
ATOM      3  C   UNL     1       7.737   6.114 -11.428  0.00  0.00    -0.019 A 
ATOM      4  C   UNL     1       6.537   6.668 -11.793  0.00  0.00    +0.032 A 
ATOM      5  C   UNL     1       5.424   6.700 -10.958  0.00  0.00    +0.134 A 
ATOM      6  C   UNL     1       5.605   6.140  -9.696  0.00  0.00    +0.012 A 
ATOM      7  C   UNL     1       4.418   5.703  -8.897  0.00  0.00    +0.034 C 
ATOM      8  C   UNL     1       6.808   5.545  -9.330  0.00  0.00    -0.002 A 
ATOM      9  C   UNL     1       7.882   5.559 -10.182  0.00  0.00    -0.004 A 
ENDBRANCH   1   5
BRANCH   1  10
ATOM     10  C   UNL     1       3.811   5.715 -12.554  0.00  0.00    +0.205 C 
BRANCH  10  11
ATOM     11  C   UNL     1       2.296   5.565 -12.515  0.00  0.00    +0.048 C 
BRANCH  11  12
ATOM     12  C   UNL     1       1.609   6.788 -11.986  0.00  0.00    +0.015 C 
BRANCH  12  13
ATOM     13  C   UNL     1       0.397   6.350 -11.170  0.00  0.00    +0.094 C 
ATOM     14  C   UNL     1       0.059   4.946 -11.639  0.00  0.00    +0.011 C 
ATOM     15  C   UNL     1      -0.804   7.219 -11.443  0.00  0.00    +0.011 C 
BRANCH  13  16
ATOM     16  C   UNL     1       0.702   6.338  -9.709  0.00  0.00    +0.364 C 
ATOM     17  O   UNL     1       1.485   7.335  -9.146  0.00  0.00    -0.246 OA
ATOM     18  O   UNL     1       0.182   5.503  -8.929  0.00  0.00    -0.246 OA
ENDBRANCH  13  16
ENDBRANCH  12  13
ENDBRANCH  11  12
ENDBRANCH  10  11
ENDBRANCH   1  10
TORSDOF 6
ENDMDL
MODEL 9
REMARK VINA RESULT:      -6.4      3.554      8.601
REMARK  Name = 
REMARK  6 active torsions:
REMARK  status: ('A' for Active; 'I' for Inactive)
REMARK    1  A    between atoms: C_7  and  O_8
REMARK    2  A    between atoms: O_8  and  C_9
REMARK    3  A    between atoms: C_9  and  C_10
REMARK    4  A    between atoms: C_10  and  C_11
REMARK    5  A    between atoms: C_11  and  C_12
REMARK    6  A    between atoms: C_12  and  C_15
REMARK                            x       y       z     vdW  Elec       q    Type
REMARK                         _______ _______ _______ _____ _____    ______ ____
ROOT
ATOM      1  O   UNL     1       1.944   6.118  -6.401  0.00  0.00    -0.476 OA
ENDROOT
BRANCH   1   5
ATOM      2  C   UNL     1       6.053   5.421  -8.894  0.00  0.00    +0.031 C 
ATOM      3  C   UNL     1       4.580   5.261  -8.728  0.00  0.00    -0.019 A 
ATOM      4  C   UNL     1       3.938   5.361  -7.521  0.00  0.00    +0.032 A 
ATOM      5  C   UNL     1       2.553   5.352  -7.389  0.00  0.00    +0.134 A 
ATOM      6  C   UNL     1       1.838   5.216  -8.576  0.00  0.00    +0.012 A 
ATOM      7  C   UNL     1       0.404   5.640  -8.637  0.00  0.00    +0.034 C 
ATOM      8  C   UNL     1       2.481   5.148  -9.808  0.00  0.00    -0.002 A 
ATOM      9  C   UNL     1       3.849   5.139  -9.882  0.00  0.00    -0.004 A 
ENDBRANCH   1   5
BRANCH   1  10
ATOM     10  C   UNL     1       1.709   5.676  -5.087  0.00  0.00    +0.205 C 
BRANCH  10  11
ATOM     11  C   UNL     1       0.220   5.367  -5.001  0.00  0.00    +0.048 C 
BRANCH  11  12
ATOM     12  C   UNL     1      -0.446   6.055  -3.848  0.00  0.00    +0.015 C 
BRANCH  12  13
ATOM     13  C   UNL     1      -1.876   6.401  -4.249  0.00  0.00    +0.094 C 
ATOM     14  C   UNL     1      -2.126   5.693  -5.569  0.00  0.00    +0.011 C 
ATOM     15  C   UNL     1      -2.050   7.879  -4.489  0.00  0.00    +0.011 C 
BRANCH  13  16
ATOM     16  C   UNL     1      -2.856   5.928  -3.226  0.00  0.00    +0.364 C 
ATOM     17  O   UNL     1      -2.891   4.593  -2.851  0.00  0.00    -0.246 OA
ATOM     18  O   UNL     1      -3.596   6.724  -2.598  0.00  0.00    -0.246 OA
ENDBRANCH  13  16
ENDBRANCH  12  13
ENDBRANCH  11  12
ENDBRANCH  10  11
ENDBRANCH   1  10
TORSDOF 6
ENDMDL
