MODEL 1
REMARK VINA RESULT:     -10.3      0.000      0.000
REMARK  Name = 
REMARK  2 active torsions:
REMARK  status: ('A' for Active; 'I' for Inactive)
REMARK    1  A    between atoms: C_19  and  C_20
REMARK    2  A    between atoms: C_25  and  N_26
REMARK                            x       y       z     vdW  Elec       q    Type
REMARK                         _______ _______ _______ _____ _____    ______ ____
ROOT
ATOM      1  C   UNL     1      -1.149   5.262  -7.387  0.00  0.00    +0.005 C 
ATOM      2  C   UNL     1       0.461   4.956  -7.404  0.00  0.00    +0.029 C 
ATOM      3  C   UNL     1       0.775   6.227  -6.317  0.00  0.00    +0.063 C 
ATOM      4  C   UNL     1       2.346   6.119  -6.445  0.00  0.00    +0.057 C 
ATOM      5  C   UNL     1       2.982   6.540  -5.389  0.00  0.00    +0.207 C 
ATOM      6  C   UNL     1       2.557   6.425  -3.977  0.00  0.00    +0.239 C 
ATOM      7  C   UNL     1       0.964   6.511  -3.923  0.00  0.00    +0.095 C 
ATOM      8  C   UNL     1       0.629   5.531  -2.561  0.00  0.00    +0.126 C 
ATOM      9  C   UNL     1       1.927   5.935  -1.664  0.00  0.00    +0.195 C 
ATOM     10  O   UNL     1       1.633   5.854  -0.288  0.00  0.00    -0.290 OA
ATOM     11  C   UNL     1       2.883   5.050  -1.985  0.00  0.00    +0.133 C 
ATOM     12  C   UNL     1       3.085   5.195  -3.435  0.00  0.00    +0.215 C 
ATOM     13  O   UNL     1       4.157   4.733  -3.935  0.00  0.00    -0.288 OA
ATOM     14  O   UNL     1       3.001   7.598  -3.377  0.00  0.00    -0.210 OA
ATOM     15  O   UNL     1       4.326   6.880  -5.583  0.00  0.00    -0.289 OA
ATOM     16  C   UNL     1       2.926   5.958  -7.754  0.00  0.00    +0.197 C 
ATOM     17  O   UNL     1       4.158   6.034  -7.892  0.00  0.00    -0.287 OA
ATOM     18  C   UNL     1       2.087   5.830  -8.953  0.00  0.00    +0.074 A 
ATOM     19  C   UNL     1       2.486   6.325 -10.179  0.00  0.00    +0.198 A 
ATOM     20  O   UNL     1       3.826   6.699 -10.306  0.00  0.00    -0.286 OA
ATOM     21  C   UNL     1       1.550   6.746 -11.117  0.00  0.00    +0.042 A 
ATOM     22  C   UNL     1       0.195   6.588 -10.846  0.00  0.00    +0.003 A 
ATOM     23  C   UNL     1      -0.105   5.791  -9.745  0.00  0.00    -0.004 A 
ATOM     24  C   UNL     1       0.805   5.169  -4.975  0.00  0.00    +0.161 C 
ATOM     25  O   UNL     1      -0.705   5.159  -4.915  0.00  0.00    -0.223 OA
ATOM     26  C   UNL     1       0.724   5.908  -8.670  0.00  0.00    -0.016 A 
ENDROOT
BRANCH   8  27
ATOM     27  N   UNL     1      -0.279   6.628  -1.868  0.00  0.00    -0.265 NA
ATOM     28  C   UNL     1      -0.850   6.081  -0.692  0.00  0.00    +0.090 C 
ATOM     29  C   UNL     1      -1.346   6.954  -2.742  0.00  0.00    +0.090 C 
ENDBRANCH   8  27
BRANCH  11  30
ATOM     30  C   UNL     1       3.952   4.657  -1.058  0.00  0.00    +0.302 C 
ATOM     31  O   UNL     1       4.599   5.576  -0.229  0.00  0.00    -0.263 OA
ATOM     32  N   UNL     1       3.789   3.502  -0.481  0.00  0.00    -0.102 NA
ENDBRANCH  11  30
TORSDOF 2
ENDMDL
MODEL 2
REMARK VINA RESULT:      -9.8      1.339      1.588
REMARK  Name = 
REMARK  2 active torsions:
REMARK  status: ('A' for Active; 'I' for Inactive)
REMARK    1  A    between atoms: C_19  and  C_20
REMARK    2  A    between atoms: C_25  and  N_26
REMARK                            x       y       z     vdW  Elec       q    Type
REMARK                         _______ _______ _______ _____ _____    ______ ____
ROOT
ATOM      1  C   UNL     1       0.139   5.163  -8.718  0.00  0.00    +0.005 C 
ATOM      2  C   UNL     1       1.636   4.789  -8.167  0.00  0.00    +0.029 C 
ATOM      3  C   UNL     1       1.650   6.131  -7.120  0.00  0.00    +0.063 C 
ATOM      4  C   UNL     1       3.162   5.946  -6.698  0.00  0.00    +0.057 C 
ATOM      5  C   UNL     1       3.431   6.425  -5.516  0.00  0.00    +0.207 C 
ATOM      6  C   UNL     1       2.549   6.444  -4.329  0.00  0.00    +0.239 C 
ATOM      7  C   UNL     1       1.041   6.601  -4.828  0.00  0.00    +0.095 C 
ATOM      8  C   UNL     1       0.201   5.752  -3.603  0.00  0.00    +0.126 C 
ATOM      9  C   UNL     1       1.145   6.173  -2.344  0.00  0.00    +0.195 C 
ATOM     10  O   UNL     1       0.400   6.218  -1.149  0.00  0.00    -0.290 OA
ATOM     11  C   UNL     1       2.091   5.225  -2.263  0.00  0.00    +0.133 C 
ATOM     12  C   UNL     1       2.779   5.241  -3.564  0.00  0.00    +0.215 C 
ATOM     13  O   UNL     1       3.923   4.696  -3.639  0.00  0.00    -0.288 OA
ATOM     14  O   UNL     1       2.843   7.643  -3.689  0.00  0.00    -0.210 OA
ATOM     15  O   UNL     1       4.782   6.691  -5.262  0.00  0.00    -0.289 OA
ATOM     16  C   UNL     1       4.136   5.654  -7.717  0.00  0.00    +0.197 C 
ATOM     17  O   UNL     1       5.345   5.667  -7.432  0.00  0.00    -0.287 OA
ATOM     18  C   UNL     1       3.744   5.463  -9.120  0.00  0.00    +0.074 A 
ATOM     19  C   UNL     1       4.565   5.839 -10.165  0.00  0.00    +0.198 A 
ATOM     20  O   UNL     1       5.891   6.144  -9.851  0.00  0.00    -0.286 OA
ATOM     21  C   UNL     1       4.030   6.221 -11.390  0.00  0.00    +0.042 A 
ATOM     22  C   UNL     1       2.656   6.142 -11.589  0.00  0.00    +0.003 A 
ATOM     23  C   UNL     1       1.949   5.453 -10.608  0.00  0.00    -0.004 A 
ATOM     24  C   UNL     1       1.155   5.186  -5.784  0.00  0.00    +0.161 C 
ATOM     25  O   UNL     1      -0.284   5.245  -6.242  0.00  0.00    -0.223 OA
ATOM     26  C   UNL     1       2.374   5.622  -9.324  0.00  0.00    -0.016 A 
ENDROOT
BRANCH   8  27
ATOM     27  N   UNL     1      -0.811   6.939  -3.332  0.00  0.00    -0.265 NA
ATOM     28  C   UNL     1      -2.047   6.402  -2.892  0.00  0.00    +0.090 C 
ATOM     29  C   UNL     1      -1.056   7.617  -4.552  0.00  0.00    +0.090 C 
ENDBRANCH   8  27
BRANCH  11  30
ATOM     30  C   UNL     1       2.757   4.864  -1.005  0.00  0.00    +0.302 C 
ATOM     31  O   UNL     1       3.144   3.554  -0.714  0.00  0.00    -0.263 OA
ATOM     32  N   UNL     1       3.607   5.741  -0.556  0.00  0.00    -0.102 NA
ENDBRANCH  11  30
TORSDOF 2
ENDMDL
MODEL 3
REMARK VINA RESULT:      -9.3      1.946      4.153
REMARK  Name = 
REMARK  2 active torsions:
REMARK  status: ('A' for Active; 'I' for Inactive)
REMARK    1  A    between atoms: C_19  and  C_20
REMARK    2  A    between atoms: C_25  and  N_26
REMARK                            x       y       z     vdW  Elec       q    Type
REMARK                         _______ _______ _______ _____ _____    ______ ____
ROOT
ATOM      1  C   UNL     1       4.363   6.863  -5.866  0.00  0.00    +0.005 C 
ATOM      2  C   UNL     1       2.748   7.074  -6.046  0.00  0.00    +0.029 C 
ATOM      3  C   UNL     1       2.401   5.851  -4.914  0.00  0.00    +0.063 C 
ATOM      4  C   UNL     1       0.845   5.861  -5.189  0.00  0.00    +0.057 C 
ATOM      5  C   UNL     1       0.137   5.465  -4.170  0.00  0.00    +0.207 C 
ATOM      6  C   UNL     1       0.422   5.685  -2.735  0.00  0.00    +0.239 C 
ATOM      7  C   UNL     1       2.006   5.695  -2.534  0.00  0.00    +0.095 C 
ATOM      8  C   UNL     1       2.161   6.769  -1.211  0.00  0.00    +0.126 C 
ATOM      9  C   UNL     1       0.809   6.342  -0.410  0.00  0.00    +0.195 C 
ATOM     10  O   UNL     1       0.970   6.519   0.979  0.00  0.00    -0.290 OA
ATOM     11  C   UNL     1      -0.158   7.151  -0.870  0.00  0.00    +0.133 C 
ATOM     12  C   UNL     1      -0.217   6.912  -2.321  0.00  0.00    +0.215 C 
ATOM     13  O   UNL     1      -1.260   7.281  -2.942  0.00  0.00    -0.288 OA
ATOM     14  O   UNL     1      -0.013   4.525  -2.105  0.00  0.00    -0.210 OA
ATOM     15  O   UNL     1      -1.164   5.038  -4.462  0.00  0.00    -0.289 OA
ATOM     16  C   UNL     1       0.381   5.913  -6.552  0.00  0.00    +0.197 C 
ATOM     17  O   UNL     1      -0.827   5.758  -6.795  0.00  0.00    -0.287 OA
ATOM     18  C   UNL     1       1.320   6.021  -7.677  0.00  0.00    +0.074 A 
ATOM     19  C   UNL     1       1.062   5.434  -8.901  0.00  0.00    +0.198 A 
ATOM     20  O   UNL     1      -0.238   4.977  -9.123  0.00  0.00    -0.286 OA
ATOM     21  C   UNL     1       2.103   5.015  -9.723  0.00  0.00    +0.042 A 
ATOM     22  C   UNL     1       3.417   5.266  -9.343  0.00  0.00    +0.003 A 
ATOM     23  C   UNL     1       3.571   6.140  -8.271  0.00  0.00    -0.004 A 
ATOM     24  C   UNL     1       2.191   6.981  -3.649  0.00  0.00    +0.161 C 
ATOM     25  O   UNL     1       3.687   7.082  -3.455  0.00  0.00    -0.223 OA
ATOM     26  C   UNL     1       2.653   6.038  -7.269  0.00  0.00    -0.016 A 
ENDROOT
BRANCH   8  27
ATOM     27  N   UNL     1       3.058   5.767  -0.373  0.00  0.00    -0.265 NA
ATOM     28  C   UNL     1       4.268   6.415  -0.019  0.00  0.00    +0.090 C 
ATOM     29  C   UNL     1       3.396   4.663  -1.194  0.00  0.00    +0.090 C 
ENDBRANCH   8  27
BRANCH  11  30
ATOM     30  C   UNL     1      -1.328   7.534  -0.069  0.00  0.00    +0.302 C 
ATOM     31  O   UNL     1      -1.972   6.640   0.789  0.00  0.00    -0.263 OA
ATOM     32  N   UNL     1      -1.300   8.744   0.410  0.00  0.00    -0.102 NA
ENDBRANCH  11  30
TORSDOF 2
ENDMDL
MODEL 4
REMARK VINA RESULT:      -9.2      4.022      8.605
REMARK  Name = 
REMARK  2 active torsions:
REMARK  status: ('A' for Active; 'I' for Inactive)
REMARK    1  A    between atoms: C_19  and  C_20
REMARK    2  A    between atoms: C_25  and  N_26
REMARK                            x       y       z     vdW  Elec       q    Type
REMARK                         _______ _______ _______ _____ _____    ______ ____
ROOT
ATOM      1  C   UNL     1       4.159   5.098  -6.561  0.00  0.00    +0.005 C 
ATOM      2  C   UNL     1       2.663   4.690  -7.091  0.00  0.00    +0.029 C 
ATOM      3  C   UNL     1       2.635   5.986  -8.193  0.00  0.00    +0.063 C 
ATOM      4  C   UNL     1       1.123   5.773  -8.601  0.00  0.00    +0.057 C 
ATOM      5  C   UNL     1       0.846   6.200  -9.800  0.00  0.00    +0.207 C 
ATOM      6  C   UNL     1       1.723   6.175 -10.990  0.00  0.00    +0.239 C 
ATOM      7  C   UNL     1       3.233   6.364 -10.505  0.00  0.00    +0.095 C 
ATOM      8  C   UNL     1       4.074   5.471 -11.696  0.00  0.00    +0.126 C 
ATOM      9  C   UNL     1       3.123   5.832 -12.968  0.00  0.00    +0.195 C 
ATOM     10  O   UNL     1       3.863   5.832 -14.167  0.00  0.00    -0.290 OA
ATOM     11  C   UNL     1       2.183   4.874 -13.005  0.00  0.00    +0.133 C 
ATOM     12  C   UNL     1       1.500   4.940 -11.703  0.00  0.00    +0.215 C 
ATOM     13  O   UNL     1       0.360   4.390 -11.602  0.00  0.00    -0.288 OA
ATOM     14  O   UNL     1       1.419   7.344 -11.679  0.00  0.00    -0.210 OA
ATOM     15  O   UNL     1      -0.508   6.444 -10.060  0.00  0.00    -0.289 OA
ATOM     16  C   UNL     1       0.154   5.517  -7.566  0.00  0.00    +0.197 C 
ATOM     17  O   UNL     1      -1.056   5.508  -7.847  0.00  0.00    -0.287 OA
ATOM     18  C   UNL     1       0.553   5.388  -6.158  0.00  0.00    +0.074 A 
ATOM     19  C   UNL     1      -0.267   5.801  -5.127  0.00  0.00    +0.198 A 
ATOM     20  O   UNL     1      -1.597   6.083  -5.448  0.00  0.00    -0.286 OA
ATOM     21  C   UNL     1       0.270   6.237  -3.921  0.00  0.00    +0.042 A 
ATOM     22  C   UNL     1       1.645   6.178  -3.724  0.00  0.00    +0.003 A 
ATOM     23  C   UNL     1       2.354   5.453  -4.678  0.00  0.00    -0.004 A 
ATOM     24  C   UNL     1       3.132   4.990  -9.490  0.00  0.00    +0.161 C 
ATOM     25  O   UNL     1       4.573   5.078  -9.040  0.00  0.00    -0.223 OA
ATOM     26  C   UNL     1       1.923   5.565  -5.966  0.00  0.00    -0.016 A 
ENDROOT
BRANCH   8  27
ATOM     27  N   UNL     1       5.076   6.653 -12.021  0.00  0.00    -0.265 NA
ATOM     28  C   UNL     1       6.351   6.110 -12.323  0.00  0.00    +0.090 C 
ATOM     29  C   UNL     1       5.224   7.456 -10.863  0.00  0.00    +0.090 C 
ENDBRANCH   8  27
BRANCH  11  30
ATOM     30  C   UNL     1       1.516   4.456 -14.244  0.00  0.00    +0.302 C 
ATOM     31  O   UNL     1       1.052   3.153 -14.440  0.00  0.00    -0.263 OA
ATOM     32  N   UNL     1       0.730   5.345 -14.778  0.00  0.00    -0.102 NA
ENDBRANCH  11  30
TORSDOF 2
ENDMDL
MODEL 5
REMARK VINA RESULT:      -9.1      2.938      7.684
REMARK  Name = 
REMARK  2 active torsions:
REMARK  status: ('A' for Active; 'I' for Inactive)
REMARK    1  A    between atoms: C_19  and  C_20
REMARK    2  A    between atoms: C_25  and  N_26
REMARK                            x       y       z     vdW  Elec       q    Type
REMARK                         _______ _______ _______ _____ _____    ______ ____
ROOT
ATOM      1  C   UNL     1       5.175   4.685  -4.183  0.00  0.00    +0.005 C 
ATOM      2  C   UNL     1       3.538   4.674  -4.258  0.00  0.00    +0.029 C 
ATOM      3  C   UNL     1       3.515   6.053  -5.256  0.00  0.00    +0.063 C 
ATOM      4  C   UNL     1       1.945   6.222  -5.204  0.00  0.00    +0.057 C 
ATOM      5  C   UNL     1       1.454   6.822  -6.251  0.00  0.00    +0.207 C 
ATOM      6  C   UNL     1       1.931   6.730  -7.648  0.00  0.00    +0.239 C 
ATOM      7  C   UNL     1       3.514   6.530  -7.626  0.00  0.00    +0.095 C 
ATOM      8  C   UNL     1       3.747   5.603  -9.045  0.00  0.00    +0.126 C 
ATOM      9  C   UNL     1       2.594   6.296  -9.963  0.00  0.00    +0.195 C 
ATOM     10  O   UNL     1       2.946   6.258 -11.327  0.00  0.00    -0.290 OA
ATOM     11  C   UNL     1       1.479   5.577  -9.753  0.00  0.00    +0.133 C 
ATOM     12  C   UNL     1       1.225   5.656  -8.305  0.00  0.00    +0.215 C 
ATOM     13  O   UNL     1       0.062   5.362  -7.890  0.00  0.00    -0.288 OA
ATOM     14  O   UNL     1       1.736   8.003  -8.173  0.00  0.00    -0.210 OA
ATOM     15  O   UNL     1       0.182   7.385  -6.088  0.00  0.00    -0.289 OA
ATOM     16  C   UNL     1       1.273   6.078  -3.938  0.00  0.00    +0.197 C 
ATOM     17  O   UNL     1       0.068   6.366  -3.847  0.00  0.00    -0.287 OA
ATOM     18  C   UNL     1       2.008   5.718  -2.717  0.00  0.00    +0.074 A 
ATOM     19  C   UNL     1       1.634   6.192  -1.475  0.00  0.00    +0.198 A 
ATOM     20  O   UNL     1       0.376   6.791  -1.377  0.00  0.00    -0.286 OA
ATOM     21  C   UNL     1       2.576   6.371  -0.468  0.00  0.00    +0.042 A 
ATOM     22  C   UNL     1       3.894   5.990  -0.691  0.00  0.00    +0.003 A 
ATOM     23  C   UNL     1       4.111   5.230  -1.837  0.00  0.00    -0.004 A 
ATOM     24  C   UNL     1       3.374   5.113  -6.676  0.00  0.00    +0.161 C 
ATOM     25  O   UNL     1       4.860   4.835  -6.672  0.00  0.00    -0.223 OA
ATOM     26  C   UNL     1       3.376   5.569  -2.934  0.00  0.00    -0.016 A 
ENDROOT
BRANCH   8  27
ATOM     27  N   UNL     1       4.872   6.563  -9.610  0.00  0.00    -0.265 NA
ATOM     28  C   UNL     1       4.520   6.966 -10.923  0.00  0.00    +0.090 C 
ATOM     29  C   UNL     1       6.086   5.837  -9.703  0.00  0.00    +0.090 C 
ENDBRANCH   8  27
BRANCH  11  30
ATOM     30  C   UNL     1       0.411   5.448 -10.752  0.00  0.00    +0.302 C 
ATOM     31  O   UNL     1      -0.297   4.259 -10.939  0.00  0.00    -0.263 OA
ATOM     32  N   UNL     1      -0.342   6.499 -10.898  0.00  0.00    -0.102 NA
ENDBRANCH  11  30
TORSDOF 2
ENDMDL
MODEL 6
REMARK VINA RESULT:      -8.7      3.072      7.106
REMARK  Name = 
REMARK  2 active torsions:
REMARK  status: ('A' for Active; 'I' for Inactive)
REMARK    1  A    between atoms: C_19  and  C_20
REMARK    2  A    between atoms: C_25  and  N_26
REMARK                            x       y       z     vdW  Elec       q    Type
REMARK                         _______ _______ _______ _____ _____    ______ ____
ROOT
ATOM      1  C   UNL     1      -1.545   6.251  -6.488  0.00  0.00    +0.005 C 
ATOM      2  C   UNL     1      -0.031   6.627  -5.986  0.00  0.00    +0.029 C 
ATOM      3  C   UNL     1       0.641   5.313  -6.833  0.00  0.00    +0.063 C 
ATOM      4  C   UNL     1       2.088   5.497  -6.225  0.00  0.00    +0.057 C 
ATOM      5  C   UNL     1       3.035   5.046  -6.998  0.00  0.00    +0.207 C 
ATOM      6  C   UNL     1       3.076   5.065  -8.476  0.00  0.00    +0.239 C 
ATOM      7  C   UNL     1       1.584   4.907  -9.022  0.00  0.00    +0.095 C 
ATOM      8  C   UNL     1       1.674   5.795 -10.482  0.00  0.00    +0.126 C 
ATOM      9  C   UNL     1       3.198   5.398 -10.897  0.00  0.00    +0.195 C 
ATOM     10  O   UNL     1       3.353   5.391 -12.298  0.00  0.00    -0.290 OA
ATOM     11  C   UNL     1       3.983   6.341 -10.351  0.00  0.00    +0.133 C 
ATOM     12  C   UNL     1       3.719   6.285  -8.904  0.00  0.00    +0.215 C 
ATOM     13  O   UNL     1       4.566   6.819  -8.125  0.00  0.00    -0.288 OA
ATOM     14  O   UNL     1       3.715   3.881  -8.828  0.00  0.00    -0.210 OA
ATOM     15  O   UNL     1       4.257   4.776  -6.369  0.00  0.00    -0.289 OA
ATOM     16  C   UNL     1       2.220   5.754  -4.814  0.00  0.00    +0.197 C 
ATOM     17  O   UNL     1       3.347   5.740  -4.291  0.00  0.00    -0.287 OA
ATOM     18  C   UNL     1       1.042   5.912  -3.950  0.00  0.00    +0.074 A 
ATOM     19  C   UNL     1       1.045   5.503  -2.631  0.00  0.00    +0.198 A 
ATOM     20  O   UNL     1       2.284   5.195  -2.065  0.00  0.00    -0.286 OA
ATOM     21  C   UNL     1      -0.130   5.094  -2.010  0.00  0.00    +0.042 A 
ATOM     22  C   UNL     1      -1.333   5.178  -2.702  0.00  0.00    +0.003 A 
ATOM     23  C   UNL     1      -1.289   5.899  -3.892  0.00  0.00    -0.004 A 
ATOM     24  C   UNL     1       1.069   6.296  -8.164  0.00  0.00    +0.161 C 
ATOM     25  O   UNL     1      -0.344   6.237  -8.697  0.00  0.00    -0.223 OA
ATOM     26  C   UNL     1      -0.159   5.759  -4.641  0.00  0.00    -0.016 A 
ENDROOT
BRANCH   8  27
ATOM     27  N   UNL     1       1.058   4.622 -11.351  0.00  0.00    -0.265 NA
ATOM     28  C   UNL     1       0.713   5.127 -12.630  0.00  0.00    +0.090 C 
ATOM     29  C   UNL     1      -0.139   4.180 -10.735  0.00  0.00    +0.090 C 
ENDBRANCH   8  27
BRANCH  11  30
ATOM     30  C   UNL     1       5.280   6.729 -10.918  0.00  0.00    +0.302 C 
ATOM     31  O   UNL     1       5.677   8.063 -11.033  0.00  0.00    -0.263 OA
ATOM     32  N   UNL     1       6.274   5.943 -10.619  0.00  0.00    -0.102 NA
ENDBRANCH  11  30
TORSDOF 2
ENDMDL
MODEL 7
REMARK VINA RESULT:      -8.5      2.441      4.829
REMARK  Name = 
REMARK  2 active torsions:
REMARK  status: ('A' for Active; 'I' for Inactive)
REMARK    1  A    between atoms: C_19  and  C_20
REMARK    2  A    between atoms: C_25  and  N_26
REMARK                            x       y       z     vdW  Elec       q    Type
REMARK                         _______ _______ _______ _____ _____    ______ ____
ROOT
ATOM      1  C   UNL     1       5.917   6.243  -9.160  0.00  0.00    +0.005 C 
ATOM      2  C   UNL     1       4.378   6.623  -9.576  0.00  0.00    +0.029 C 
ATOM      3  C   UNL     1       3.751   5.324  -8.672  0.00  0.00    +0.063 C 
ATOM      4  C   UNL     1       2.271   5.509  -9.194  0.00  0.00    +0.057 C 
ATOM      5  C   UNL     1       1.370   5.075  -8.360  0.00  0.00    +0.207 C 
ATOM      6  C   UNL     1       1.418   5.113  -6.882  0.00  0.00    +0.239 C 
ATOM      7  C   UNL     1       2.939   4.953  -6.425  0.00  0.00    +0.095 C 
ATOM      8  C   UNL     1       2.943   5.860  -4.974  0.00  0.00    +0.126 C 
ATOM      9  C   UNL     1       1.444   5.478  -4.462  0.00  0.00    +0.195 C 
ATOM     10  O   UNL     1       1.375   5.490  -3.055  0.00  0.00    -0.290 OA
ATOM     11  C   UNL     1       0.634   6.419  -4.973  0.00  0.00    +0.133 C 
ATOM     12  C   UNL     1       0.810   6.343  -6.432  0.00  0.00    +0.215 C 
ATOM     13  O   UNL     1      -0.080   6.872  -7.166  0.00  0.00    -0.288 OA
ATOM     14  O   UNL     1       0.795   3.937  -6.477  0.00  0.00    -0.210 OA
ATOM     15  O   UNL     1       0.111   4.805  -8.910  0.00  0.00    -0.289 OA
ATOM     16  C   UNL     1       2.055   5.749 -10.598  0.00  0.00    +0.197 C 
ATOM     17  O   UNL     1       0.899   5.735 -11.052  0.00  0.00    -0.287 OA
ATOM     18  C   UNL     1       3.180   5.888 -11.533  0.00  0.00    +0.074 A 
ATOM     19  C   UNL     1       3.095   5.462 -12.844  0.00  0.00    +0.198 A 
ATOM     20  O   UNL     1       1.822   5.155 -13.330  0.00  0.00    -0.286 OA
ATOM     21  C   UNL     1       4.228   5.037 -13.530  0.00  0.00    +0.042 A 
ATOM     22  C   UNL     1       5.471   5.123 -12.913  0.00  0.00    +0.003 A 
ATOM     23  C   UNL     1       5.503   5.859 -11.732  0.00  0.00    -0.004 A 
ATOM     24  C   UNL     1       3.409   6.327  -7.331  0.00  0.00    +0.161 C 
ATOM     25  O   UNL     1       4.852   6.266  -6.884  0.00  0.00    -0.223 OA
ATOM     26  C   UNL     1       4.420   5.736 -10.914  0.00  0.00    -0.016 A 
ENDROOT
BRANCH   8  27
ATOM     27  N   UNL     1       3.604   4.695  -4.128  0.00  0.00    -0.265 NA
ATOM     28  C   UNL     1       3.625   5.071  -2.762  0.00  0.00    +0.090 C 
ATOM     29  C   UNL     1       4.949   4.537  -4.544  0.00  0.00    +0.090 C 
ENDBRANCH   8  27
BRANCH  11  30
ATOM     30  C   UNL     1      -0.625   6.823  -4.334  0.00  0.00    +0.302 C 
ATOM     31  O   UNL     1      -1.184   8.090  -4.517  0.00  0.00    -0.263 OA
ATOM     32  N   UNL     1      -1.530   5.891  -4.255  0.00  0.00    -0.102 NA
ENDBRANCH  11  30
TORSDOF 2
ENDMDL
MODEL 8
REMARK VINA RESULT:      -7.8      3.155      5.124
REMARK  Name = 
REMARK  2 active torsions:
REMARK  status: ('A' for Active; 'I' for Inactive)
REMARK    1  A    between atoms: C_19  and  C_20
REMARK    2  A    between atoms: C_25  and  N_26
REMARK                            x       y       z     vdW  Elec       q    Type
REMARK                         _______ _______ _______ _____ _____    ______ ____
ROOT
ATOM      1  C   UNL     1      -1.642   6.074  -1.012  0.00  0.00    +0.005 C 
ATOM      2  C   UNL     1      -0.185   5.516  -1.514  0.00  0.00    +0.029 C 
ATOM      3  C   UNL     1       0.528   7.051  -1.346  0.00  0.00    +0.063 C 
ATOM      4  C   UNL     1       1.897   6.629  -2.012  0.00  0.00    +0.057 C 
ATOM      5  C   UNL     1       2.911   7.339  -1.606  0.00  0.00    +0.207 C 
ATOM      6  C   UNL     1       3.131   7.907  -0.258  0.00  0.00    +0.239 C 
ATOM      7  C   UNL     1       1.711   8.282   0.367  0.00  0.00    +0.095 C 
ATOM      8  C   UNL     1       2.014   8.043   2.034  0.00  0.00    +0.126 C 
ATOM      9  C   UNL     1       3.559   8.557   2.062  0.00  0.00    +0.195 C 
ATOM     10  O   UNL     1       3.881   9.117   3.315  0.00  0.00    -0.290 OA
ATOM     11  C   UNL     1       4.310   7.468   1.836  0.00  0.00    +0.133 C 
ATOM     12  C   UNL     1       3.871   6.950   0.530  0.00  0.00    +0.215 C 
ATOM     13  O   UNL     1       4.640   6.143  -0.077  0.00  0.00    -0.288 OA
ATOM     14  O   UNL     1       3.757   9.128  -0.485  0.00  0.00    -0.210 OA
ATOM     15  O   UNL     1       4.035   7.327  -2.440  0.00  0.00    -0.289 OA
ATOM     16  C   UNL     1       1.869   5.833  -3.212  0.00  0.00    +0.197 C 
ATOM     17  O   UNL     1       2.923   5.629  -3.838  0.00  0.00    -0.287 OA
ATOM     18  C   UNL     1       0.603   5.357  -3.786  0.00  0.00    +0.074 A 
ATOM     19  C   UNL     1       0.429   5.211  -5.148  0.00  0.00    +0.198 A 
ATOM     20  O   UNL     1       1.577   5.258  -5.943  0.00  0.00    -0.286 OA
ATOM     21  C   UNL     1      -0.828   5.352  -5.725  0.00  0.00    +0.042 A 
ATOM     22  C   UNL     1      -1.934   5.560  -4.908  0.00  0.00    +0.003 A 
ATOM     23  C   UNL     1      -1.716   5.368  -3.547  0.00  0.00    -0.004 A 
ATOM     24  C   UNL     1       1.155   6.671   0.199  0.00  0.00    +0.161 C 
ATOM     25  O   UNL     1      -0.185   6.949   0.840  0.00  0.00    -0.223 OA
ATOM     26  C   UNL     1      -0.511   5.782  -3.064  0.00  0.00    -0.016 A 
ENDROOT
BRANCH   8  27
ATOM     27  N   UNL     1       1.458   9.469   2.443  0.00  0.00    -0.265 NA
ATOM     28  C   UNL     1       0.535   9.318   3.508  0.00  0.00    +0.090 C 
ATOM     29  C   UNL     1       0.748  10.013   1.344  0.00  0.00    +0.090 C 
ENDBRANCH   8  27
BRANCH  11  30
ATOM     30  C   UNL     1       5.682   7.324   2.339  0.00  0.00    +0.302 C 
ATOM     31  O   UNL     1       6.608   8.369   2.293  0.00  0.00    -0.263 OA
ATOM     32  N   UNL     1       5.805   6.603   3.416  0.00  0.00    -0.102 NA
ENDBRANCH  11  30
TORSDOF 2
ENDMDL
MODEL 9
REMARK VINA RESULT:      -7.8      2.348      3.807
REMARK  Name = 
REMARK  2 active torsions:
REMARK  status: ('A' for Active; 'I' for Inactive)
REMARK    1  A    between atoms: C_19  and  C_20
REMARK    2  A    between atoms: C_25  and  N_26
REMARK                            x       y       z     vdW  Elec       q    Type
REMARK                         _______ _______ _______ _____ _____    ______ ____
ROOT
ATOM      1  C   UNL     1      -0.567   4.629 -11.152  0.00  0.00    +0.005 C 
ATOM      2  C   UNL     1       1.067   4.569 -11.054  0.00  0.00    +0.029 C 
ATOM      3  C   UNL     1       1.122   5.978 -10.101  0.00  0.00    +0.063 C 
ATOM      4  C   UNL     1       2.698   6.095 -10.138  0.00  0.00    +0.057 C 
ATOM      5  C   UNL     1       3.195   6.713  -9.104  0.00  0.00    +0.207 C 
ATOM      6  C   UNL     1       2.699   6.681  -7.712  0.00  0.00    +0.239 C 
ATOM      7  C   UNL     1       1.110   6.531  -7.747  0.00  0.00    +0.095 C 
ATOM      8  C   UNL     1       0.831   5.658  -6.303  0.00  0.00    +0.126 C 
ATOM      9  C   UNL     1       1.994   6.343  -5.393  0.00  0.00    +0.195 C 
ATOM     10  O   UNL     1       1.625   6.360  -4.033  0.00  0.00    -0.290 OA
ATOM     11  C   UNL     1       3.088   5.583  -5.565  0.00  0.00    +0.133 C 
ATOM     12  C   UNL     1       3.362   5.607  -7.011  0.00  0.00    +0.215 C 
ATOM     13  O   UNL     1       4.520   5.264  -7.401  0.00  0.00    -0.288 OA
ATOM     14  O   UNL     1       2.928   7.964  -7.224  0.00  0.00    -0.210 OA
ATOM     15  O   UNL     1       4.486   7.230  -9.268  0.00  0.00    -0.289 OA
ATOM     16  C   UNL     1       3.380   5.890 -11.390  0.00  0.00    +0.197 C 
ATOM     17  O   UNL     1       4.595   6.136 -11.474  0.00  0.00    -0.287 OA
ATOM     18  C   UNL     1       2.649   5.514 -12.608  0.00  0.00    +0.074 A 
ATOM     19  C   UNL     1       3.053   5.935 -13.860  0.00  0.00    +0.198 A 
ATOM     20  O   UNL     1       4.330   6.491 -13.960  0.00  0.00    -0.286 OA
ATOM     21  C   UNL     1       2.129   6.111 -14.884  0.00  0.00    +0.042 A 
ATOM     22  C   UNL     1       0.797   5.779 -14.666  0.00  0.00    +0.003 A 
ATOM     23  C   UNL     1       0.542   5.064 -13.499  0.00  0.00    -0.004 A 
ATOM     24  C   UNL     1       1.217   5.080  -8.650  0.00  0.00    +0.161 C 
ATOM     25  O   UNL     1      -0.277   4.849  -8.665  0.00  0.00    -0.223 OA
ATOM     26  C   UNL     1       1.274   5.415 -12.404  0.00  0.00    -0.016 A 
ENDROOT
BRANCH   8  27
ATOM     27  N   UNL     1      -0.270   6.671  -5.783  0.00  0.00    -0.265 NA
ATOM     28  C   UNL     1      -0.125   6.833  -4.383  0.00  0.00    +0.090 C 
ATOM     29  C   UNL     1      -1.551   6.108  -6.012  0.00  0.00    +0.090 C 
ENDBRANCH   8  27
BRANCH  11  30
ATOM     30  C   UNL     1       4.139   5.453  -4.548  0.00  0.00    +0.302 C 
ATOM     31  O   UNL     1       4.794   4.244  -4.301  0.00  0.00    -0.263 OA
ATOM     32  N   UNL     1       4.935   6.477  -4.439  0.00  0.00    -0.102 NA
ENDBRANCH  11  30
TORSDOF 2
ENDMDL
