MODEL 1
REMARK VINA RESULT:     -10.2      0.000      0.000
REMARK  Name = 
REMARK  9 active torsions:
REMARK  status: ('A' for Active; 'I' for Inactive)
REMARK    1  A    between atoms: C_2  and  O_3
REMARK    2  A    between atoms: C_2  and  C_28
REMARK    3  A    between atoms: O_3  and  C_4
REMARK    4  A    between atoms: N_8  and  C_9
REMARK    5  A    between atoms: C_9  and  C_10
REMARK    6  A    between atoms: N_12  and  P_13
REMARK    7  A    between atoms: C_20  and  C_21
REMARK    8  A    between atoms: C_30  and  C_31
REMARK    9  A    between atoms: C_36  and  C_37
REMARK                            x       y       z     vdW  Elec       q    Type
REMARK                         _______ _______ _______ _____ _____    ______ ____
ROOT
ATOM      1  C   UNL     1       3.376   6.052  -5.115  0.00  0.00    +0.255 C 
ATOM      2  C   UNL     1       2.444   6.618  -6.518  0.00  0.00    +0.138 C 
ATOM      3  N   UNL     1       2.900   5.390  -7.403  0.00  0.00    -0.258 NA
ATOM      4  C   UNL     1       2.389   4.201  -6.977  0.00  0.00    +0.105 C 
ATOM      5  C   UNL     1       2.991   3.825  -5.626  0.00  0.00    +0.162 C 
ATOM      6  O   UNL     1       2.455   4.831  -4.834  0.00  0.00    -0.328 OA
ENDROOT
BRANCH   2   7
ATOM      7  C   UNL     1       1.028   5.975  -6.052  0.00  0.00    -0.003 A 
ATOM      8  C   UNL     1       0.229   6.878  -5.347  0.00  0.00    -0.001 A 
ATOM      9  C   UNL     1      -1.054   6.416  -5.078  0.00  0.00    +0.029 A 
ATOM     10  C   UNL     1      -1.711   5.808  -6.131  0.00  0.00    +0.140 A 
ATOM     11  F   UNL     1      -2.950   5.263  -5.968  0.00  0.00    -0.204 F 
ATOM     12  C   UNL     1      -1.001   5.536  -7.293  0.00  0.00    +0.029 A 
ATOM     13  C   UNL     1       0.349   5.619  -7.217  0.00  0.00    -0.001 A 
ENDBRANCH   2   7
BRANCH   1  14
ATOM     14  O   UNL     1       2.558   6.945  -4.125  0.00  0.00    -0.327 OA
BRANCH  14  16
ATOM     15  C   UNL     1       4.673   6.113  -3.506  0.00  0.00    +0.037 C 
ATOM     16  C   UNL     1       3.915   7.607  -3.749  0.00  0.00    +0.140 C 
BRANCH  16  17
ATOM     17  C   UNL     1       3.485   7.767  -2.162  0.00  0.00    +0.005 A 
ATOM     18  C   UNL     1       3.880   8.882  -1.525  0.00  0.00    +0.002 A 
ATOM     19  C   UNL     1       3.260   9.145  -0.304  0.00  0.00    +0.071 A 
ATOM     20  C   UNL     1       2.308   8.256   0.184  0.00  0.00    +0.008 A 
ATOM     21  C   UNL     1       1.890   7.155  -0.552  0.00  0.00    +0.071 A 
ATOM     22  C   UNL     1       2.452   6.939  -1.805  0.00  0.00    +0.002 A 
BRANCH  21  23
ATOM     23  C   UNL     1       0.647   6.406  -0.253  0.00  0.00    +0.419 C 
ATOM     24  F   UNL     1       0.929   5.071  -0.494  0.00  0.00    -0.166 F 
ATOM     25  F   UNL     1       0.274   6.629   1.043  0.00  0.00    -0.166 F 
ATOM     26  F   UNL     1      -0.319   6.850  -1.149  0.00  0.00    -0.166 F 
ENDBRANCH  21  23
BRANCH  19  27
ATOM     27  C   UNL     1       3.087  10.562   0.151  0.00  0.00    +0.419 C 
ATOM     28  F   UNL     1       3.959  10.870   1.165  0.00  0.00    -0.166 F 
ATOM     29  F   UNL     1       3.214  11.428  -0.931  0.00  0.00    -0.166 F 
ATOM     30  F   UNL     1       1.804  10.724   0.613  0.00  0.00    -0.166 F 
ENDBRANCH  19  27
ENDBRANCH  16  17
ENDBRANCH  14  16
ENDBRANCH   1  14
BRANCH   3  31
ATOM     31  C   UNL     1       2.943   5.772  -8.741  0.00  0.00    +0.141 C 
BRANCH  31  32
ATOM     32  C   UNL     1       4.118   5.485  -9.550  0.00  0.00    +0.180 A 
ATOM     33  N   UNL     1       5.377   5.435  -9.044  0.00  0.00    -0.173 NA
ATOM     34  C   UNL     1       6.212   5.865 -10.024  0.00  0.00    +0.376 A 
ATOM     35  O   UNL     1       7.364   6.366  -9.911  0.00  0.00    -0.242 OA
ATOM     36  N   UNL     1       5.543   5.665 -11.186  0.00  0.00    -0.108 N 
ATOM     37  N   UNL     1       4.313   5.260 -10.871  0.00  0.00    -0.140 NA
BRANCH  36  38
ATOM     38  P   UNL     1       6.400   5.550 -12.709  0.00  0.00    +0.516 P 
ATOM     39  O   UNL     1       6.911   7.055 -13.262  0.00  0.00    -0.119 OA
ATOM     40  O   UNL     1       7.789   4.582 -12.564  0.00  0.00    -0.119 OA
ATOM     41  O   UNL     1       5.550   4.931 -13.784  0.00  0.00    -0.227 OA
ENDBRANCH  36  38
ENDBRANCH  31  32
ENDBRANCH   3  31
TORSDOF 9
ENDMDL
MODEL 2
REMARK VINA RESULT:     -10.2      0.908      1.553
REMARK  Name = 
REMARK  9 active torsions:
REMARK  status: ('A' for Active; 'I' for Inactive)
REMARK    1  A    between atoms: C_2  and  O_3
REMARK    2  A    between atoms: C_2  and  C_28
REMARK    3  A    between atoms: O_3  and  C_4
REMARK    4  A    between atoms: N_8  and  C_9
REMARK    5  A    between atoms: C_9  and  C_10
REMARK    6  A    between atoms: N_12  and  P_13
REMARK    7  A    between atoms: C_20  and  C_21
REMARK    8  A    between atoms: C_30  and  C_31
REMARK    9  A    between atoms: C_36  and  C_37
REMARK                            x       y       z     vdW  Elec       q    Type
REMARK                         _______ _______ _______ _____ _____    ______ ____
ROOT
ATOM      1  C   UNL     1       3.241   6.037  -5.849  0.00  0.00    +0.255 C 
ATOM      2  C   UNL     1       2.105   6.687  -7.052  0.00  0.00    +0.138 C 
ATOM      3  N   UNL     1       2.503   5.592  -8.120  0.00  0.00    -0.258 NA
ATOM      4  C   UNL     1       2.113   4.334  -7.772  0.00  0.00    +0.105 C 
ATOM      5  C   UNL     1       2.904   3.857  -6.557  0.00  0.00    +0.162 C 
ATOM      6  O   UNL     1       2.427   4.736  -5.596  0.00  0.00    -0.328 OA
ENDROOT
BRANCH   2   7
ATOM      7  C   UNL     1       0.797   5.908  -6.490  0.00  0.00    -0.003 A 
ATOM      8  C   UNL     1       0.062   6.672  -5.579  0.00  0.00    -0.001 A 
ATOM      9  C   UNL     1      -1.150   6.104  -5.205  0.00  0.00    +0.029 A 
ATOM     10  C   UNL     1      -1.917   5.585  -6.231  0.00  0.00    +0.140 A 
ATOM     11  F   UNL     1      -3.096   4.949  -5.977  0.00  0.00    -0.204 F 
ATOM     12  C   UNL     1      -1.361   5.495  -7.501  0.00  0.00    +0.029 A 
ATOM     13  C   UNL     1      -0.018   5.651  -7.591  0.00  0.00    -0.001 A 
ENDBRANCH   2   7
BRANCH   1  14
ATOM     14  O   UNL     1       2.515   6.766  -4.670  0.00  0.00    -0.327 OA
BRANCH  14  16
ATOM     15  C   UNL     1       4.670   5.908  -4.261  0.00  0.00    +0.037 C 
ATOM     16  C   UNL     1       3.893   7.410  -4.345  0.00  0.00    +0.140 C 
BRANCH  16  17
ATOM     17  C   UNL     1       3.575   7.455  -2.724  0.00  0.00    +0.005 A 
ATOM     18  C   UNL     1       4.017   8.522  -2.038  0.00  0.00    +0.002 A 
ATOM     19  C   UNL     1       3.484   8.697  -0.761  0.00  0.00    +0.071 A 
ATOM     20  C   UNL     1       2.566   7.773  -0.272  0.00  0.00    +0.008 A 
ATOM     21  C   UNL     1       2.094   6.726  -1.054  0.00  0.00    +0.071 A 
ATOM     22  C   UNL     1       2.567   6.602  -2.356  0.00  0.00    +0.002 A 
BRANCH  21  23
ATOM     23  C   UNL     1       0.874   5.955  -0.724  0.00  0.00    +0.419 C 
ATOM     24  F   UNL     1       1.248   4.621  -0.706  0.00  0.00    -0.166 F 
ATOM     25  F   UNL     1       0.379   6.369   0.482  0.00  0.00    -0.166 F 
ATOM     26  F   UNL     1      -0.035   6.174  -1.753  0.00  0.00    -0.166 F 
ENDBRANCH  21  23
BRANCH  19  27
ATOM     27  C   UNL     1       3.347  10.077  -0.195  0.00  0.00    +0.419 C 
ATOM     28  F   UNL     1       2.098  10.277   0.338  0.00  0.00    -0.166 F 
ATOM     29  F   UNL     1       4.357  10.311   0.734  0.00  0.00    -0.166 F 
ATOM     30  F   UNL     1       3.544  10.989  -1.202  0.00  0.00    -0.166 F 
ENDBRANCH  19  27
ENDBRANCH  16  17
ENDBRANCH  14  16
ENDBRANCH   1  14
BRANCH   3  31
ATOM     31  C   UNL     1       2.351   6.115  -9.401  0.00  0.00    +0.141 C 
BRANCH  31  32
ATOM     32  C   UNL     1       3.488   6.183 -10.307  0.00  0.00    +0.180 A 
ATOM     33  N   UNL     1       3.384   6.009 -11.649  0.00  0.00    -0.173 NA
ATOM     34  C   UNL     1       4.541   5.432 -12.062  0.00  0.00    +0.376 A 
ATOM     35  O   UNL     1       4.746   4.734 -13.092  0.00  0.00    -0.242 OA
ATOM     36  N   UNL     1       5.461   5.743 -11.116  0.00  0.00    -0.108 N 
ATOM     37  N   UNL     1       4.819   6.363 -10.127  0.00  0.00    -0.140 NA
BRANCH  36  38
ATOM     38  P   UNL     1       7.174   5.695 -11.478  0.00  0.00    +0.516 P 
ATOM     39  O   UNL     1       8.093   5.265 -10.135  0.00  0.00    -0.119 OA
ATOM     40  O   UNL     1       7.517   4.557 -12.692  0.00  0.00    -0.119 OA
ATOM     41  O   UNL     1       7.679   7.023 -11.972  0.00  0.00    -0.227 OA
ENDBRANCH  36  38
ENDBRANCH  31  32
ENDBRANCH   3  31
TORSDOF 9
ENDMDL
MODEL 3
REMARK VINA RESULT:     -10.0      1.785      2.203
REMARK  Name = 
REMARK  9 active torsions:
REMARK  status: ('A' for Active; 'I' for Inactive)
REMARK    1  A    between atoms: C_2  and  O_3
REMARK    2  A    between atoms: C_2  and  C_28
REMARK    3  A    between atoms: O_3  and  C_4
REMARK    4  A    between atoms: N_8  and  C_9
REMARK    5  A    between atoms: C_9  and  C_10
REMARK    6  A    between atoms: N_12  and  P_13
REMARK    7  A    between atoms: C_20  and  C_21
REMARK    8  A    between atoms: C_30  and  C_31
REMARK    9  A    between atoms: C_36  and  C_37
REMARK                            x       y       z     vdW  Elec       q    Type
REMARK                         _______ _______ _______ _____ _____    ______ ____
ROOT
ATOM      1  C   UNL     1       2.841   5.989  -5.445  0.00  0.00    +0.255 C 
ATOM      2  C   UNL     1       1.560   6.738  -6.421  0.00  0.00    +0.138 C 
ATOM      3  N   UNL     1       1.827   5.768  -7.640  0.00  0.00    -0.258 NA
ATOM      4  C   UNL     1       1.490   4.473  -7.380  0.00  0.00    +0.105 C 
ATOM      5  C   UNL     1       2.430   3.887  -6.330  0.00  0.00    +0.162 C 
ATOM      6  O   UNL     1       2.073   4.654  -5.230  0.00  0.00    -0.328 OA
ENDROOT
BRANCH   2   7
ATOM      7  C   UNL     1       0.337   5.881  -5.786  0.00  0.00    -0.003 A 
ATOM      8  C   UNL     1      -0.203   6.475  -4.643  0.00  0.00    -0.001 A 
ATOM      9  C   UNL     1      -1.355   5.858  -4.169  0.00  0.00    +0.029 A 
ATOM     10  C   UNL     1      -2.304   5.538  -5.122  0.00  0.00    +0.140 A 
ATOM     11  F   UNL     1      -3.447   4.876  -4.782  0.00  0.00    -0.204 F 
ATOM     12  C   UNL     1      -1.975   5.673  -6.464  0.00  0.00    +0.029 A 
ATOM     13  C   UNL     1      -0.662   5.832  -6.757  0.00  0.00    -0.001 A 
ENDBRANCH   2   7
BRANCH   1  14
ATOM     14  O   UNL     1       2.265   6.577  -4.114  0.00  0.00    -0.327 OA
BRANCH  14  16
ATOM     15  C   UNL     1       4.286   5.532  -3.503  0.00  0.00    +0.037 C 
ATOM     16  C   UNL     1       3.706   7.089  -3.828  0.00  0.00    +0.140 C 
BRANCH  16  17
ATOM     17  C   UNL     1       3.361   7.406  -2.243  0.00  0.00    +0.005 A 
ATOM     18  C   UNL     1       3.921   8.497  -1.696  0.00  0.00    +0.002 A 
ATOM     19  C   UNL     1       3.388   8.918  -0.479  0.00  0.00    +0.071 A 
ATOM     20  C   UNL     1       2.347   8.196   0.097  0.00  0.00    +0.008 A 
ATOM     21  C   UNL     1       1.761   7.115  -0.550  0.00  0.00    +0.071 A 
ATOM     22  C   UNL     1       2.243   6.747  -1.801  0.00  0.00    +0.002 A 
BRANCH  21  23
ATOM     23  C   UNL     1       0.444   6.558  -0.164  0.00  0.00    +0.419 C 
ATOM     24  F   UNL     1       0.409   5.263  -0.656  0.00  0.00    -0.166 F 
ATOM     25  F   UNL     1       0.307   6.597   1.196  0.00  0.00    -0.166 F 
ATOM     26  F   UNL     1      -0.523   7.328  -0.800  0.00  0.00    -0.166 F 
ENDBRANCH  21  23
BRANCH  19  27
ATOM     27  C   UNL     1       3.418  10.372  -0.116  0.00  0.00    +0.419 C 
ATOM     28  F   UNL     1       4.405  10.637   0.800  0.00  0.00    -0.166 F 
ATOM     29  F   UNL     1       3.548  11.145  -1.265  0.00  0.00    -0.166 F 
ATOM     30  F   UNL     1       2.208  10.715   0.433  0.00  0.00    -0.166 F 
ENDBRANCH  19  27
ENDBRANCH  16  17
ENDBRANCH  14  16
ENDBRANCH   1  14
BRANCH   3  31
ATOM     31  C   UNL     1       1.513   6.418  -8.830  0.00  0.00    +0.141 C 
BRANCH  31  32
ATOM     32  C   UNL     1       1.898   5.838 -10.108  0.00  0.00    +0.180 A 
ATOM     33  N   UNL     1       3.189   5.707 -10.509  0.00  0.00    -0.173 NA
ATOM     34  C   UNL     1       3.197   5.842 -11.859  0.00  0.00    +0.376 A 
ATOM     35  O   UNL     1       4.148   6.195 -12.607  0.00  0.00    -0.242 OA
ATOM     36  N   UNL     1       1.940   5.535 -12.264  0.00  0.00    -0.108 N 
ATOM     37  N   UNL     1       1.202   5.361 -11.168  0.00  0.00    -0.140 NA
BRANCH  36  38
ATOM     38  P   UNL     1       1.621   5.041 -13.914  0.00  0.00    +0.516 P 
ATOM     39  O   UNL     1       1.577   6.351 -14.969  0.00  0.00    -0.119 OA
ATOM     40  O   UNL     1       2.827   3.989 -14.486  0.00  0.00    -0.119 OA
ATOM     41  O   UNL     1       0.313   4.310 -14.036  0.00  0.00    -0.227 OA
ENDBRANCH  36  38
ENDBRANCH  31  32
ENDBRANCH   3  31
TORSDOF 9
ENDMDL
MODEL 4
REMARK VINA RESULT:      -9.9      5.763     10.254
REMARK  Name = 
REMARK  9 active torsions:
REMARK  status: ('A' for Active; 'I' for Inactive)
REMARK    1  A    between atoms: C_2  and  O_3
REMARK    2  A    between atoms: C_2  and  C_28
REMARK    3  A    between atoms: O_3  and  C_4
REMARK    4  A    between atoms: N_8  and  C_9
REMARK    5  A    between atoms: C_9  and  C_10
REMARK    6  A    between atoms: N_12  and  P_13
REMARK    7  A    between atoms: C_20  and  C_21
REMARK    8  A    between atoms: C_30  and  C_31
REMARK    9  A    between atoms: C_36  and  C_37
REMARK                            x       y       z     vdW  Elec       q    Type
REMARK                         _______ _______ _______ _____ _____    ______ ____
ROOT
ATOM      1  C   UNL     1       2.291   5.418  -7.794  0.00  0.00    +0.255 C 
ATOM      2  C   UNL     1       1.746   6.678  -6.667  0.00  0.00    +0.138 C 
ATOM      3  N   UNL     1       0.690   5.715  -5.991  0.00  0.00    -0.258 NA
ATOM      4  C   UNL     1       1.263   4.700  -5.284  0.00  0.00    +0.105 C 
ATOM      5  C   UNL     1       1.974   3.737  -6.231  0.00  0.00    +0.162 C 
ATOM      6  O   UNL     1       2.988   4.560  -6.699  0.00  0.00    -0.328 OA
ENDROOT
BRANCH   2   7
ATOM      7  C   UNL     1       2.917   6.444  -5.568  0.00  0.00    -0.003 A 
ATOM      8  C   UNL     1       4.082   7.159  -5.858  0.00  0.00    -0.001 A 
ATOM      9  C   UNL     1       5.045   7.113  -4.856  0.00  0.00    +0.029 A 
ATOM     10  C   UNL     1       4.584   7.311  -3.567  0.00  0.00    +0.140 A 
ATOM     11  F   UNL     1       5.427   7.228  -2.499  0.00  0.00    -0.204 F 
ATOM     12  C   UNL     1       3.214   7.350  -3.345  0.00  0.00    +0.029 A 
ATOM     13  C   UNL     1       2.421   6.907  -4.351  0.00  0.00    -0.001 A 
ENDBRANCH   2   7
BRANCH   1  14
ATOM     14  O   UNL     1       3.625   6.175  -8.102  0.00  0.00    -0.327 OA
BRANCH  14  16
ATOM     15  C   UNL     1       5.683   5.031  -8.155  0.00  0.00    +0.037 C 
ATOM     16  C   UNL     1       4.113   4.852  -8.761  0.00  0.00    +0.140 C 
BRANCH  16  17
ATOM     17  C   UNL     1       4.464   5.603 -10.190  0.00  0.00    +0.005 A 
ATOM     18  C   UNL     1       5.744   5.944 -10.410  0.00  0.00    +0.002 A 
ATOM     19  C   UNL     1       6.073   6.287 -11.720  0.00  0.00    +0.071 A 
ATOM     20  C   UNL     1       5.084   6.277 -12.698  0.00  0.00    +0.008 A 
ATOM     21  C   UNL     1       3.791   5.848 -12.426  0.00  0.00    +0.071 A 
ATOM     22  C   UNL     1       3.486   5.430 -11.135  0.00  0.00    +0.002 A 
BRANCH  21  23
ATOM     23  C   UNL     1       2.823   5.472 -13.482  0.00  0.00    +0.419 C 
ATOM     24  F   UNL     1       1.666   5.079 -12.830  0.00  0.00    -0.166 F 
ATOM     25  F   UNL     1       2.610   6.538 -14.313  0.00  0.00    -0.166 F 
ATOM     26  F   UNL     1       3.369   4.391 -14.165  0.00  0.00    -0.166 F 
ENDBRANCH  21  23
BRANCH  19  27
ATOM     27  C   UNL     1       7.461   6.035 -12.229  0.00  0.00    +0.419 C 
ATOM     28  F   UNL     1       7.617   6.509 -13.507  0.00  0.00    -0.166 F 
ATOM     29  F   UNL     1       8.394   6.578 -11.351  0.00  0.00    -0.166 F 
ATOM     30  F   UNL     1       7.691   4.682 -12.233  0.00  0.00    -0.166 F 
ENDBRANCH  19  27
ENDBRANCH  16  17
ENDBRANCH  14  16
ENDBRANCH   1  14
BRANCH   3  31
ATOM     31  C   UNL     1      -0.389   6.460  -5.527  0.00  0.00    +0.141 C 
BRANCH  31  32
ATOM     32  C   UNL     1      -0.866   6.291  -4.162  0.00  0.00    +0.180 A 
ATOM     33  N   UNL     1      -2.136   5.922  -3.856  0.00  0.00    -0.173 NA
ATOM     34  C   UNL     1      -2.448   6.524  -2.681  0.00  0.00    +0.376 A 
ATOM     35  O   UNL     1      -3.588   6.810  -2.223  0.00  0.00    -0.242 OA
ATOM     36  N   UNL     1      -1.261   6.788  -2.079  0.00  0.00    -0.108 N 
ATOM     37  N   UNL     1      -0.299   6.468  -2.944  0.00  0.00    -0.140 NA
BRANCH  36  38
ATOM     38  P   UNL     1      -1.167   7.046  -0.349  0.00  0.00    +0.516 P 
ATOM     39  O   UNL     1       0.401   6.865   0.233  0.00  0.00    -0.119 OA
ATOM     40  O   UNL     1      -1.668   8.615   0.068  0.00  0.00    -0.119 OA
ATOM     41  O   UNL     1      -2.050   6.092   0.408  0.00  0.00    -0.227 OA
ENDBRANCH  36  38
ENDBRANCH  31  32
ENDBRANCH   3  31
TORSDOF 9
ENDMDL
MODEL 5
REMARK VINA RESULT:      -9.7      5.628      9.769
REMARK  Name = 
REMARK  9 active torsions:
REMARK  status: ('A' for Active; 'I' for Inactive)
REMARK    1  A    between atoms: C_2  and  O_3
REMARK    2  A    between atoms: C_2  and  C_28
REMARK    3  A    between atoms: O_3  and  C_4
REMARK    4  A    between atoms: N_8  and  C_9
REMARK    5  A    between atoms: C_9  and  C_10
REMARK    6  A    between atoms: N_12  and  P_13
REMARK    7  A    between atoms: C_20  and  C_21
REMARK    8  A    between atoms: C_30  and  C_31
REMARK    9  A    between atoms: C_36  and  C_37
REMARK                            x       y       z     vdW  Elec       q    Type
REMARK                         _______ _______ _______ _____ _____    ______ ____
ROOT
ATOM      1  C   UNL     1       3.810   5.649  -6.625  0.00  0.00    +0.255 C 
ATOM      2  C   UNL     1       2.914   4.660  -5.453  0.00  0.00    +0.138 C 
ATOM      3  N   UNL     1       3.515   5.450  -4.223  0.00  0.00    -0.258 NA
ATOM      4  C   UNL     1       3.078   6.739  -4.146  0.00  0.00    +0.105 C 
ATOM      5  C   UNL     1       3.632   7.551  -5.314  0.00  0.00    +0.162 C 
ATOM      6  O   UNL     1       2.975   6.936  -6.370  0.00  0.00    -0.328 OA
ENDROOT
BRANCH   2   7
ATOM      7  C   UNL     1       1.531   5.504  -5.538  0.00  0.00    -0.003 A 
ATOM      8  C   UNL     1       0.642   4.993  -6.488  0.00  0.00    -0.001 A 
ATOM      9  C   UNL     1      -0.614   5.588  -6.473  0.00  0.00    +0.029 A 
ATOM     10  C   UNL     1      -1.184   5.762  -5.226  0.00  0.00    +0.140 A 
ATOM     11  F   UNL     1      -2.387   6.389  -5.084  0.00  0.00    -0.204 F 
ATOM     12  C   UNL     1      -0.412   5.518  -4.098  0.00  0.00    +0.029 A 
ATOM     13  C   UNL     1       0.924   5.404  -4.287  0.00  0.00    -0.001 A 
ENDBRANCH   2   7
BRANCH   1  14
ATOM     14  O   UNL     1       2.869   5.227  -7.802  0.00  0.00    -0.327 OA
BRANCH  14  16
ATOM     15  C   UNL     1       1.800   6.623  -9.370  0.00  0.00    +0.037 C 
ATOM     16  C   UNL     1       3.219   6.599  -8.448  0.00  0.00    +0.140 C 
BRANCH  16  17
ATOM     17  C   UNL     1       4.113   5.894  -9.646  0.00  0.00    +0.005 A 
ATOM     18  C   UNL     1       3.492   5.634 -10.807  0.00  0.00    +0.002 A 
ATOM     19  C   UNL     1       4.315   5.333 -11.891  0.00  0.00    +0.071 A 
ATOM     20  C   UNL     1       5.694   5.300 -11.714  0.00  0.00    +0.008 A 
ATOM     21  C   UNL     1       6.284   5.646 -10.504  0.00  0.00    +0.071 A 
ATOM     22  C   UNL     1       5.464   6.024  -9.447  0.00  0.00    +0.002 A 
BRANCH  21  23
ATOM     23  C   UNL     1       7.721   5.981 -10.370  0.00  0.00    +0.419 C 
ATOM     24  F   UNL     1       8.317   5.624 -11.569  0.00  0.00    -0.166 F 
ATOM     25  F   UNL     1       7.861   7.314 -10.100  0.00  0.00    -0.166 F 
ATOM     26  F   UNL     1       8.226   5.193  -9.342  0.00  0.00    -0.166 F 
ENDBRANCH  21  23
BRANCH  19  27
ATOM     27  C   UNL     1       3.870   5.676 -13.281  0.00  0.00    +0.419 C 
ATOM     28  F   UNL     1       2.689   6.375 -13.268  0.00  0.00    -0.166 F 
ATOM     29  F   UNL     1       4.879   6.363 -13.947  0.00  0.00    -0.166 F 
ATOM     30  F   UNL     1       3.681   4.511 -13.983  0.00  0.00    -0.166 F 
ENDBRANCH  19  27
ENDBRANCH  16  17
ENDBRANCH  14  16
ENDBRANCH   1  14
BRANCH   3  31
ATOM     31  C   UNL     1       3.601   4.603  -3.122  0.00  0.00    +0.141 C 
BRANCH  31  32
ATOM     32  C   UNL     1       3.554   5.144  -1.772  0.00  0.00    +0.180 A 
ATOM     33  N   UNL     1       2.448   5.093  -0.986  0.00  0.00    -0.173 NA
ATOM     34  C   UNL     1       2.467   6.206  -0.209  0.00  0.00    +0.376 A 
ATOM     35  O   UNL     1       1.499   6.787   0.354  0.00  0.00    -0.242 OA
ATOM     36  N   UNL     1       3.764   6.599  -0.166  0.00  0.00    -0.108 N 
ATOM     37  N   UNL     1       4.444   5.815  -1.001  0.00  0.00    -0.140 NA
BRANCH  36  38
ATOM     38  P   UNL     1       4.349   7.629   1.125  0.00  0.00    +0.516 P 
ATOM     39  O   UNL     1       3.779   9.206   0.983  0.00  0.00    -0.119 OA
ATOM     40  O   UNL     1       3.846   7.060   2.645  0.00  0.00    -0.119 OA
ATOM     41  O   UNL     1       5.852   7.686   1.157  0.00  0.00    -0.227 OA
ENDBRANCH  36  38
ENDBRANCH  31  32
ENDBRANCH   3  31
TORSDOF 9
ENDMDL
MODEL 6
REMARK VINA RESULT:      -9.5      5.466     10.145
REMARK  Name = 
REMARK  9 active torsions:
REMARK  status: ('A' for Active; 'I' for Inactive)
REMARK    1  A    between atoms: C_2  and  O_3
REMARK    2  A    between atoms: C_2  and  C_28
REMARK    3  A    between atoms: O_3  and  C_4
REMARK    4  A    between atoms: N_8  and  C_9
REMARK    5  A    between atoms: C_9  and  C_10
REMARK    6  A    between atoms: N_12  and  P_13
REMARK    7  A    between atoms: C_20  and  C_21
REMARK    8  A    between atoms: C_30  and  C_31
REMARK    9  A    between atoms: C_36  and  C_37
REMARK                            x       y       z     vdW  Elec       q    Type
REMARK                         _______ _______ _______ _____ _____    ______ ____
ROOT
ATOM      1  C   UNL     1       2.214   5.410  -7.745  0.00  0.00    +0.255 C 
ATOM      2  C   UNL     1       1.704   6.693  -6.626  0.00  0.00    +0.138 C 
ATOM      3  N   UNL     1       0.661   5.747  -5.908  0.00  0.00    -0.258 NA
ATOM      4  C   UNL     1       1.247   4.742  -5.198  0.00  0.00    +0.105 C 
ATOM      5  C   UNL     1       1.928   3.758  -6.145  0.00  0.00    +0.162 C 
ATOM      6  O   UNL     1       2.934   4.568  -6.653  0.00  0.00    -0.328 OA
ENDROOT
BRANCH   2   7
ATOM      7  C   UNL     1       2.902   6.471  -5.554  0.00  0.00    -0.003 A 
ATOM      8  C   UNL     1       4.049   7.206  -5.864  0.00  0.00    -0.001 A 
ATOM      9  C   UNL     1       5.033   7.170  -4.882  0.00  0.00    +0.029 A 
ATOM     10  C   UNL     1       4.597   7.354  -3.584  0.00  0.00    +0.140 A 
ATOM     11  F   UNL     1       5.463   7.278  -2.533  0.00  0.00    -0.204 F 
ATOM     12  C   UNL     1       3.231   7.370  -3.333  0.00  0.00    +0.029 A 
ATOM     13  C   UNL     1       2.424   6.919  -4.324  0.00  0.00    -0.001 A 
ENDBRANCH   2   7
BRANCH   1  14
ATOM     14  O   UNL     1       3.543   6.154  -8.100  0.00  0.00    -0.327 OA
BRANCH  14  16
ATOM     15  C   UNL     1       5.703   5.230  -8.263  0.00  0.00    +0.037 C 
ATOM     16  C   UNL     1       4.097   4.764  -8.525  0.00  0.00    +0.140 C 
BRANCH  16  17
ATOM     17  C   UNL     1       4.126   5.178 -10.124  0.00  0.00    +0.005 A 
ATOM     18  C   UNL     1       2.965   5.125 -10.796  0.00  0.00    +0.002 A 
ATOM     19  C   UNL     1       2.942   5.761 -12.037  0.00  0.00    +0.071 A 
ATOM     20  C   UNL     1       4.095   6.382 -12.507  0.00  0.00    +0.008 A 
ATOM     21  C   UNL     1       5.248   6.464 -11.736  0.00  0.00    +0.071 A 
ATOM     22  C   UNL     1       5.241   5.898 -10.466  0.00  0.00    +0.002 A 
BRANCH  21  23
ATOM     23  C   UNL     1       6.351   7.409 -12.027  0.00  0.00    +0.419 C 
ATOM     24  F   UNL     1       7.500   6.840 -11.504  0.00  0.00    -0.166 F 
ATOM     25  F   UNL     1       6.442   7.610 -13.377  0.00  0.00    -0.166 F 
ATOM     26  F   UNL     1       6.061   8.589 -11.351  0.00  0.00    -0.166 F 
ENDBRANCH  21  23
BRANCH  19  27
ATOM     27  C   UNL     1       1.661   6.346 -12.549  0.00  0.00    +0.419 C 
ATOM     28  F   UNL     1       1.048   7.118 -11.595  0.00  0.00    -0.166 F 
ATOM     29  F   UNL     1       1.899   7.054 -13.723  0.00  0.00    -0.166 F 
ATOM     30  F   UNL     1       0.814   5.321 -12.893  0.00  0.00    -0.166 F 
ENDBRANCH  19  27
ENDBRANCH  16  17
ENDBRANCH  14  16
ENDBRANCH   1  14
BRANCH   3  31
ATOM     31  C   UNL     1      -0.403   6.506  -5.429  0.00  0.00    +0.141 C 
BRANCH  31  32
ATOM     32  C   UNL     1      -0.876   6.329  -4.064  0.00  0.00    +0.180 A 
ATOM     33  N   UNL     1      -2.141   5.941  -3.758  0.00  0.00    -0.173 NA
ATOM     34  C   UNL     1      -2.461   6.538  -2.582  0.00  0.00    +0.376 A 
ATOM     35  O   UNL     1      -3.605   6.806  -2.124  0.00  0.00    -0.242 OA
ATOM     36  N   UNL     1      -1.279   6.818  -1.981  0.00  0.00    -0.108 N 
ATOM     37  N   UNL     1      -0.312   6.514  -2.846  0.00  0.00    -0.140 NA
BRANCH  36  38
ATOM     38  P   UNL     1      -1.188   7.077  -0.251  0.00  0.00    +0.516 P 
ATOM     39  O   UNL     1       0.376   6.877   0.338  0.00  0.00    -0.119 OA
ATOM     40  O   UNL     1      -1.672   8.652   0.164  0.00  0.00    -0.119 OA
ATOM     41  O   UNL     1      -2.085   6.134   0.504  0.00  0.00    -0.227 OA
ENDBRANCH  36  38
ENDBRANCH  31  32
ENDBRANCH   3  31
TORSDOF 9
ENDMDL
MODEL 7
REMARK VINA RESULT:      -9.4      5.322     10.168
REMARK  Name = 
REMARK  9 active torsions:
REMARK  status: ('A' for Active; 'I' for Inactive)
REMARK    1  A    between atoms: C_2  and  O_3
REMARK    2  A    between atoms: C_2  and  C_28
REMARK    3  A    between atoms: O_3  and  C_4
REMARK    4  A    between atoms: N_8  and  C_9
REMARK    5  A    between atoms: C_9  and  C_10
REMARK    6  A    between atoms: N_12  and  P_13
REMARK    7  A    between atoms: C_20  and  C_21
REMARK    8  A    between atoms: C_30  and  C_31
REMARK    9  A    between atoms: C_36  and  C_37
REMARK                            x       y       z     vdW  Elec       q    Type
REMARK                         _______ _______ _______ _____ _____    ______ ____
ROOT
ATOM      1  C   UNL     1       2.295   5.529  -7.466  0.00  0.00    +0.255 C 
ATOM      2  C   UNL     1       1.805   6.814  -6.342  0.00  0.00    +0.138 C 
ATOM      3  N   UNL     1       0.732   5.889  -5.642  0.00  0.00    -0.258 NA
ATOM      4  C   UNL     1       1.286   4.863  -4.935  0.00  0.00    +0.105 C 
ATOM      5  C   UNL     1       1.953   3.871  -5.884  0.00  0.00    +0.162 C 
ATOM      6  O   UNL     1       2.983   4.661  -6.375  0.00  0.00    -0.328 OA
ENDROOT
BRANCH   2   7
ATOM      7  C   UNL     1       2.986   6.554  -5.259  0.00  0.00    -0.003 A 
ATOM      8  C   UNL     1       4.187   7.180  -5.606  0.00  0.00    -0.001 A 
ATOM      9  C   UNL     1       5.168   7.116  -4.624  0.00  0.00    +0.029 A 
ATOM     10  C   UNL     1       4.754   7.400  -3.337  0.00  0.00    +0.140 A 
ATOM     11  F   UNL     1       5.616   7.310  -2.284  0.00  0.00    -0.204 F 
ATOM     12  C   UNL     1       3.394   7.536  -3.087  0.00  0.00    +0.029 A 
ATOM     13  C   UNL     1       2.550   7.101  -4.053  0.00  0.00    -0.001 A 
ENDBRANCH   2   7
BRANCH   1  14
ATOM     14  O   UNL     1       3.646   6.244  -7.802  0.00  0.00    -0.327 OA
BRANCH  14  16
ATOM     15  C   UNL     1       5.642   5.457  -8.774  0.00  0.00    +0.037 C 
ATOM     16  C   UNL     1       4.054   4.926  -8.522  0.00  0.00    +0.140 C 
BRANCH  16  17
ATOM     17  C   UNL     1       3.526   5.474  -9.989  0.00  0.00    +0.005 A 
ATOM     18  C   UNL     1       4.447   5.653 -10.949  0.00  0.00    +0.002 A 
ATOM     19  C   UNL     1       3.961   5.813 -12.246  0.00  0.00    +0.071 A 
ATOM     20  C   UNL     1       2.587   5.798 -12.468  0.00  0.00    +0.008 A 
ATOM     21  C   UNL     1       1.684   5.540 -11.444  0.00  0.00    +0.071 A 
ATOM     22  C   UNL     1       2.177   5.301 -10.166  0.00  0.00    +0.002 A 
BRANCH  21  23
ATOM     23  C   UNL     1       0.275   5.154 -11.686  0.00  0.00    +0.419 C 
ATOM     24  F   UNL     1       0.229   4.630 -12.968  0.00  0.00    -0.166 F 
ATOM     25  F   UNL     1      -0.123   4.246 -10.743  0.00  0.00    -0.166 F 
ATOM     26  F   UNL     1      -0.480   6.319 -11.626  0.00  0.00    -0.166 F 
ENDBRANCH  21  23
BRANCH  19  27
ATOM     27  C   UNL     1       4.789   5.363 -13.411  0.00  0.00    +0.419 C 
ATOM     28  F   UNL     1       4.232   4.268 -14.025  0.00  0.00    -0.166 F 
ATOM     29  F   UNL     1       4.978   6.420 -14.296  0.00  0.00    -0.166 F 
ATOM     30  F   UNL     1       6.039   5.022 -12.959  0.00  0.00    -0.166 F 
ENDBRANCH  19  27
ENDBRANCH  16  17
ENDBRANCH  14  16
ENDBRANCH   1  14
BRANCH   3  31
ATOM     31  C   UNL     1      -0.317   6.669  -5.167  0.00  0.00    +0.141 C 
BRANCH  31  32
ATOM     32  C   UNL     1      -0.817   6.483  -3.813  0.00  0.00    +0.180 A 
ATOM     33  N   UNL     1      -2.065   6.025  -3.535  0.00  0.00    -0.173 NA
ATOM     34  C   UNL     1      -2.453   6.618  -2.378  0.00  0.00    +0.376 A 
ATOM     35  O   UNL     1      -3.623   6.825  -1.955  0.00  0.00    -0.242 OA
ATOM     36  N   UNL     1      -1.306   6.976  -1.749  0.00  0.00    -0.108 N 
ATOM     37  N   UNL     1      -0.299   6.717  -2.583  0.00  0.00    -0.140 NA
BRANCH  36  38
ATOM     38  P   UNL     1      -1.279   7.262  -0.021  0.00  0.00    +0.516 P 
ATOM     39  O   UNL     1      -2.213   6.144   0.821  0.00  0.00    -0.119 OA
ATOM     40  O   UNL     1       0.300   7.149   0.598  0.00  0.00    -0.119 OA
ATOM     41  O   UNL     1      -1.784   8.636   0.326  0.00  0.00    -0.227 OA
ENDBRANCH  36  38
ENDBRANCH  31  32
ENDBRANCH   3  31
TORSDOF 9
ENDMDL
MODEL 8
REMARK VINA RESULT:      -9.3      5.199      9.614
REMARK  Name = 
REMARK  9 active torsions:
REMARK  status: ('A' for Active; 'I' for Inactive)
REMARK    1  A    between atoms: C_2  and  O_3
REMARK    2  A    between atoms: C_2  and  C_28
REMARK    3  A    between atoms: O_3  and  C_4
REMARK    4  A    between atoms: N_8  and  C_9
REMARK    5  A    between atoms: C_9  and  C_10
REMARK    6  A    between atoms: N_12  and  P_13
REMARK    7  A    between atoms: C_20  and  C_21
REMARK    8  A    between atoms: C_30  and  C_31
REMARK    9  A    between atoms: C_36  and  C_37
REMARK                            x       y       z     vdW  Elec       q    Type
REMARK                         _______ _______ _______ _____ _____    ______ ____
ROOT
ATOM      1  C   UNL     1       3.526   5.315  -6.581  0.00  0.00    +0.255 C 
ATOM      2  C   UNL     1       2.614   4.496  -5.295  0.00  0.00    +0.138 C 
ATOM      3  N   UNL     1       3.319   5.342  -4.162  0.00  0.00    -0.258 NA
ATOM      4  C   UNL     1       2.977   6.661  -4.182  0.00  0.00    +0.105 C 
ATOM      5  C   UNL     1       3.536   7.329  -5.436  0.00  0.00    +0.162 C 
ATOM      6  O   UNL     1       2.794   6.676  -6.410  0.00  0.00    -0.328 OA
ENDROOT
BRANCH   2   7
ATOM      7  C   UNL     1       1.290   5.428  -5.404  0.00  0.00    -0.003 A 
ATOM      8  C   UNL     1       0.405   4.998  -6.396  0.00  0.00    -0.001 A 
ATOM      9  C   UNL     1      -0.812   5.671  -6.407  0.00  0.00    +0.029 A 
ATOM     10  C   UNL     1      -1.412   5.851  -5.175  0.00  0.00    +0.140 A 
ATOM     11  F   UNL     1      -2.577   6.550  -5.056  0.00  0.00    -0.204 F 
ATOM     12  C   UNL     1      -0.696   5.532  -4.029  0.00  0.00    +0.029 A 
ATOM     13  C   UNL     1       0.636   5.338  -4.177  0.00  0.00    -0.001 A 
ENDBRANCH   2   7
BRANCH   1  14
ATOM     14  O   UNL     1       2.510   4.865  -7.683  0.00  0.00    -0.327 OA
BRANCH  14  16
ATOM     15  C   UNL     1       4.807   5.383  -7.755  0.00  0.00    +0.037 C 
ATOM     16  C   UNL     1       3.733   4.262  -8.431  0.00  0.00    +0.140 C 
BRANCH  16  17
ATOM     17  C   UNL     1       3.458   5.177  -9.779  0.00  0.00    +0.005 A 
ATOM     18  C   UNL     1       4.509   5.438 -10.573  0.00  0.00    +0.002 A 
ATOM     19  C   UNL     1       4.213   5.937 -11.841  0.00  0.00    +0.071 A 
ATOM     20  C   UNL     1       2.886   6.149 -12.199  0.00  0.00    +0.008 A 
ATOM     21  C   UNL     1       1.836   5.795 -11.360  0.00  0.00    +0.071 A 
ATOM     22  C   UNL     1       2.133   5.223 -10.128  0.00  0.00    +0.002 A 
BRANCH  21  23
ATOM     23  C   UNL     1       0.437   5.657 -11.827  0.00  0.00    +0.419 C 
ATOM     24  F   UNL     1       0.449   5.944 -13.182  0.00  0.00    -0.166 F 
ATOM     25  F   UNL     1      -0.011   4.391 -11.571  0.00  0.00    -0.166 F 
ATOM     26  F   UNL     1      -0.312   6.613 -11.151  0.00  0.00    -0.166 F 
ENDBRANCH  21  23
BRANCH  19  27
ATOM     27  C   UNL     1       5.133   5.645 -12.988  0.00  0.00    +0.419 C 
ATOM     28  F   UNL     1       6.148   4.801 -12.611  0.00  0.00    -0.166 F 
ATOM     29  F   UNL     1       4.407   5.145 -14.064  0.00  0.00    -0.166 F 
ATOM     30  F   UNL     1       5.684   6.825 -13.422  0.00  0.00    -0.166 F 
ENDBRANCH  19  27
ENDBRANCH  16  17
ENDBRANCH  14  16
ENDBRANCH   1  14
BRANCH   3  31
ATOM     31  C   UNL     1       3.393   4.587  -2.995  0.00  0.00    +0.141 C 
BRANCH  31  32
ATOM     32  C   UNL     1       3.297   5.232  -1.694  0.00  0.00    +0.180 A 
ATOM     33  N   UNL     1       2.135   5.344  -1.001  0.00  0.00    -0.173 NA
ATOM     34  C   UNL     1       2.203   6.506  -0.304  0.00  0.00    +0.376 A 
ATOM     35  O   UNL     1       1.257   7.216   0.134  0.00  0.00    -0.242 OA
ATOM     36  N   UNL     1       3.525   6.780  -0.180  0.00  0.00    -0.108 N 
ATOM     37  N   UNL     1       4.187   5.875  -0.901  0.00  0.00    -0.140 NA
BRANCH  36  38
ATOM     38  P   UNL     1       4.109   7.848   1.080  0.00  0.00    +0.516 P 
ATOM     39  O   UNL     1       3.422   7.497   2.575  0.00  0.00    -0.119 OA
ATOM     40  O   UNL     1       5.792   7.717   1.268  0.00  0.00    -0.119 OA
ATOM     41  O   UNL     1       3.818   9.291   0.769  0.00  0.00    -0.227 OA
ENDBRANCH  36  38
ENDBRANCH  31  32
ENDBRANCH   3  31
TORSDOF 9
ENDMDL
MODEL 9
REMARK VINA RESULT:      -9.2      5.086      9.485
REMARK  Name = 
REMARK  9 active torsions:
REMARK  status: ('A' for Active; 'I' for Inactive)
REMARK    1  A    between atoms: C_2  and  O_3
REMARK    2  A    between atoms: C_2  and  C_28
REMARK    3  A    between atoms: O_3  and  C_4
REMARK    4  A    between atoms: N_8  and  C_9
REMARK    5  A    between atoms: C_9  and  C_10
REMARK    6  A    between atoms: N_12  and  P_13
REMARK    7  A    between atoms: C_20  and  C_21
REMARK    8  A    between atoms: C_30  and  C_31
REMARK    9  A    between atoms: C_36  and  C_37
REMARK                            x       y       z     vdW  Elec       q    Type
REMARK                         _______ _______ _______ _____ _____    ______ ____
ROOT
ATOM      1  C   UNL     1       2.811   5.103  -6.729  0.00  0.00    +0.255 C 
ATOM      2  C   UNL     1       1.829   4.739  -5.294  0.00  0.00    +0.138 C 
ATOM      3  N   UNL     1       2.648   5.747  -4.393  0.00  0.00    -0.258 NA
ATOM      4  C   UNL     1       2.464   7.052  -4.742  0.00  0.00    +0.105 C 
ATOM      5  C   UNL     1       3.077   7.321  -6.113  0.00  0.00    +0.162 C 
ATOM      6  O   UNL     1       2.248   6.542  -6.907  0.00  0.00    -0.328 OA
ENDROOT
BRANCH   2   7
ATOM      7  C   UNL     1       0.624   5.767  -5.646  0.00  0.00    -0.003 A 
ATOM      8  C   UNL     1      -0.379   5.180  -6.422  0.00  0.00    -0.001 A 
ATOM      9  C   UNL     1      -1.502   5.978  -6.603  0.00  0.00    +0.029 A 
ATOM     10  C   UNL     1      -1.983   6.609  -5.471  0.00  0.00    +0.140 A 
ATOM     11  F   UNL     1      -3.043   7.464  -5.539  0.00  0.00    -0.204 F 
ATOM     12  C   UNL     1      -1.228   6.560  -4.307  0.00  0.00    +0.029 A 
ATOM     13  C   UNL     1       0.057   6.148  -4.431  0.00  0.00    -0.001 A 
ENDBRANCH   2   7
BRANCH   1  14
ATOM     14  O   UNL     1       1.730   4.521  -7.700  0.00  0.00    -0.327 OA
BRANCH  14  16
ATOM     15  C   UNL     1       4.080   4.686  -7.682  0.00  0.00    +0.037 C 
ATOM     16  C   UNL     1       2.880   3.677  -8.321  0.00  0.00    +0.140 C 
BRANCH  16  17
ATOM     17  C   UNL     1       2.808   4.494  -9.756  0.00  0.00    +0.005 A 
ATOM     18  C   UNL     1       1.592   4.848 -10.204  0.00  0.00    +0.002 A 
ATOM     19  C   UNL     1       1.566   5.787 -11.233  0.00  0.00    +0.071 A 
ATOM     20  C   UNL     1       2.764   6.280 -11.741  0.00  0.00    +0.008 A 
ATOM     21  C   UNL     1       3.990   5.928 -11.190  0.00  0.00    +0.071 A 
ATOM     22  C   UNL     1       4.009   5.052 -10.110  0.00  0.00    +0.002 A 
BRANCH  21  23
ATOM     23  C   UNL     1       5.237   6.687 -11.440  0.00  0.00    +0.419 C 
ATOM     24  F   UNL     1       5.402   6.725 -12.815  0.00  0.00    -0.166 F 
ATOM     25  F   UNL     1       5.132   7.938 -10.898  0.00  0.00    -0.166 F 
ATOM     26  F   UNL     1       6.274   5.964 -10.862  0.00  0.00    -0.166 F 
ENDBRANCH  21  23
BRANCH  19  27
ATOM     27  C   UNL     1       0.401   6.723 -11.356  0.00  0.00    +0.419 C 
ATOM     28  F   UNL     1       0.559   7.580 -12.416  0.00  0.00    -0.166 F 
ATOM     29  F   UNL     1      -0.783   5.998 -11.440  0.00  0.00    -0.166 F 
ATOM     30  F   UNL     1       0.308   7.465 -10.205  0.00  0.00    -0.166 F 
ENDBRANCH  19  27
ENDBRANCH  16  17
ENDBRANCH  14  16
ENDBRANCH   1  14
BRANCH   3  31
ATOM     31  C   UNL     1       2.651   5.298  -3.076  0.00  0.00    +0.141 C 
BRANCH  31  32
ATOM     32  C   UNL     1       2.914   6.224  -1.984  0.00  0.00    +0.180 A 
ATOM     33  N   UNL     1       4.127   6.347  -1.387  0.00  0.00    -0.173 NA
ATOM     34  C   UNL     1       3.896   6.664  -0.088  0.00  0.00    +0.376 A 
ATOM     35  O   UNL     1       4.645   6.483   0.910  0.00  0.00    -0.242 OA
ATOM     36  N   UNL     1       2.656   7.214  -0.062  0.00  0.00    -0.108 N 
ATOM     37  N   UNL     1       2.142   7.090  -1.286  0.00  0.00    -0.140 NA
BRANCH  36  38
ATOM     38  P   UNL     1       2.160   8.252   1.258  0.00  0.00    +0.516 P 
ATOM     39  O   UNL     1       1.928   7.393   2.686  0.00  0.00    -0.119 OA
ATOM     40  O   UNL     1       3.332   9.439   1.583  0.00  0.00    -0.119 OA
ATOM     41  O   UNL     1       0.880   8.979   0.947  0.00  0.00    -0.227 OA
ENDBRANCH  36  38
ENDBRANCH  31  32
ENDBRANCH   3  31
TORSDOF 9
ENDMDL
