MODEL 1
REMARK VINA RESULT:      -5.1      0.000      0.000
REMARK  Name = 
REMARK  2 active torsions:
REMARK  status: ('A' for Active; 'I' for Inactive)
REMARK    1  A    between atoms: C_5  and  C_6
REMARK    2  A    between atoms: C_8  and  C_9
REMARK                            x       y       z     vdW  Elec       q    Type
REMARK                         _______ _______ _______ _____ _____    ______ ____
ROOT
ATOM      1  C   UNL     1       1.751   4.064  -6.235  0.00  0.00    +0.056 C 
ATOM      2  C   UNL     1       0.795   4.940  -5.495  0.00  0.00    +0.098 A 
ATOM      3  C   UNL     1      -0.329   5.477  -6.109  0.00  0.00    +0.207 A 
ATOM      4  O   UNL     1      -0.470   5.299  -7.489  0.00  0.00    -0.286 OA
ATOM      5  C   UNL     1      -1.396   5.887  -5.327  0.00  0.00    +0.051 A 
ATOM      6  C   UNL     1      -1.425   5.648  -3.958  0.00  0.00    +0.031 A 
ATOM      7  C   UNL     1      -0.176   5.417  -3.392  0.00  0.00    +0.097 A 
ATOM      8  N   UNL     1       0.865   4.978  -4.142  0.00  0.00    -0.245 NA
ENDROOT
BRANCH   5   9
ATOM      9  C   UNL     1      -2.678   6.331  -5.958  0.00  0.00    +0.212 C 
ATOM     10  O   UNL     1      -2.841   7.664  -5.544  0.00  0.00    -0.215 OA
ENDBRANCH   5   9
BRANCH   6  11
ATOM     11  C   UNL     1      -2.675   5.204  -3.265  0.00  0.00    +0.210 C 
ATOM     12  O   UNL     1      -2.393   4.945  -1.917  0.00  0.00    -0.215 OA
ENDBRANCH   6  11
TORSDOF 2
ENDMDL
MODEL 2
REMARK VINA RESULT:      -5.0      8.298     10.156
REMARK  Name = 
REMARK  2 active torsions:
REMARK  status: ('A' for Active; 'I' for Inactive)
REMARK    1  A    between atoms: C_5  and  C_6
REMARK    2  A    between atoms: C_8  and  C_9
REMARK                            x       y       z     vdW  Elec       q    Type
REMARK                         _______ _______ _______ _____ _____    ______ ____
ROOT
ATOM      1  C   UNL     1       5.374   5.121  -8.216  0.00  0.00    +0.056 C 
ATOM      2  C   UNL     1       5.499   5.864  -9.506  0.00  0.00    +0.098 A 
ATOM      3  C   UNL     1       6.677   5.857 -10.241  0.00  0.00    +0.207 A 
ATOM      4  O   UNL     1       7.802   5.255  -9.670  0.00  0.00    -0.286 OA
ATOM      5  C   UNL     1       6.631   6.153 -11.594  0.00  0.00    +0.051 A 
ATOM      6  C   UNL     1       5.422   6.322 -12.258  0.00  0.00    +0.031 A 
ATOM      7  C   UNL     1       4.351   6.630 -11.427  0.00  0.00    +0.097 A 
ATOM      8  N   UNL     1       4.370   6.309 -10.109  0.00  0.00    -0.245 NA
ENDROOT
BRANCH   5   9
ATOM      9  C   UNL     1       7.853   6.011 -12.447  0.00  0.00    +0.212 C 
ATOM     10  O   UNL     1       7.966   4.631 -12.687  0.00  0.00    -0.215 OA
ENDBRANCH   5   9
BRANCH   6  11
ATOM     11  C   UNL     1       5.193   5.760 -13.627  0.00  0.00    +0.210 C 
ATOM     12  O   UNL     1       4.699   4.453 -13.517  0.00  0.00    -0.215 OA
ENDBRANCH   6  11
TORSDOF 2
ENDMDL
MODEL 3
REMARK VINA RESULT:      -4.9      8.002     10.020
REMARK  Name = 
REMARK  2 active torsions:
REMARK  status: ('A' for Active; 'I' for Inactive)
REMARK    1  A    between atoms: C_5  and  C_6
REMARK    2  A    between atoms: C_8  and  C_9
REMARK                            x       y       z     vdW  Elec       q    Type
REMARK                         _______ _______ _______ _____ _____    ______ ____
ROOT
ATOM      1  C   UNL     1       9.037   6.005 -11.951  0.00  0.00    +0.056 C 
ATOM      2  C   UNL     1       7.605   6.417 -12.065  0.00  0.00    +0.098 A 
ATOM      3  C   UNL     1       6.725   5.768 -12.921  0.00  0.00    +0.207 A 
ATOM      4  O   UNL     1       7.247   4.807 -13.792  0.00  0.00    -0.286 OA
ATOM      5  C   UNL     1       5.363   5.857 -12.685  0.00  0.00    +0.051 A 
ATOM      6  C   UNL     1       4.865   6.462 -11.537  0.00  0.00    +0.031 A 
ATOM      7  C   UNL     1       5.752   7.340 -10.923  0.00  0.00    +0.097 A 
ATOM      8  N   UNL     1       7.090   7.238 -11.118  0.00  0.00    -0.245 NA
ENDROOT
BRANCH   5   9
ATOM      9  C   UNL     1       4.395   5.053 -13.494  0.00  0.00    +0.212 C 
ATOM     10  O   UNL     1       3.928   5.939 -14.480  0.00  0.00    -0.215 OA
ENDBRANCH   5   9
BRANCH   6  11
ATOM     11  C   UNL     1       3.715   5.878 -10.777  0.00  0.00    +0.210 C 
ATOM     12  O   UNL     1       4.182   4.864  -9.931  0.00  0.00    -0.215 OA
ENDBRANCH   6  11
TORSDOF 2
ENDMDL
MODEL 4
REMARK VINA RESULT:      -4.9      6.542      9.189
REMARK  Name = 
REMARK  2 active torsions:
REMARK  status: ('A' for Active; 'I' for Inactive)
REMARK    1  A    between atoms: C_5  and  C_6
REMARK    2  A    between atoms: C_8  and  C_9
REMARK                            x       y       z     vdW  Elec       q    Type
REMARK                         _______ _______ _______ _____ _____    ______ ____
ROOT
ATOM      1  C   UNL     1       3.993   5.397  -7.742  0.00  0.00    +0.056 C 
ATOM      2  C   UNL     1       4.849   5.272  -8.959  0.00  0.00    +0.098 A 
ATOM      3  C   UNL     1       4.302   5.244 -10.236  0.00  0.00    +0.207 A 
ATOM      4  O   UNL     1       2.910   5.187 -10.352  0.00  0.00    -0.286 OA
ATOM      5  C   UNL     1       5.098   5.578 -11.319  0.00  0.00    +0.051 A 
ATOM      6  C   UNL     1       6.387   6.071 -11.148  0.00  0.00    +0.031 A 
ATOM      7  C   UNL     1       6.955   5.769  -9.915  0.00  0.00    +0.097 A 
ATOM      8  N   UNL     1       6.183   5.478  -8.838  0.00  0.00    -0.245 NA
ENDROOT
BRANCH   5   9
ATOM      9  C   UNL     1       4.509   5.703 -12.689  0.00  0.00    +0.212 C 
ATOM     10  O   UNL     1       4.972   4.573 -13.385  0.00  0.00    -0.215 OA
ENDBRANCH   5   9
BRANCH   6  11
ATOM     11  C   UNL     1       6.912   7.200 -11.978  0.00  0.00    +0.210 C 
ATOM     12  O   UNL     1       6.409   8.412 -11.488  0.00  0.00    -0.215 OA
ENDBRANCH   6  11
TORSDOF 2
ENDMDL
MODEL 5
REMARK VINA RESULT:      -4.9      1.778      3.137
REMARK  Name = 
REMARK  2 active torsions:
REMARK  status: ('A' for Active; 'I' for Inactive)
REMARK    1  A    between atoms: C_5  and  C_6
REMARK    2  A    between atoms: C_8  and  C_9
REMARK                            x       y       z     vdW  Elec       q    Type
REMARK                         _______ _______ _______ _____ _____    ______ ____
ROOT
ATOM      1  C   UNL     1       2.612   5.457  -4.180  0.00  0.00    +0.056 C 
ATOM      2  C   UNL     1       1.148   5.372  -4.461  0.00  0.00    +0.098 A 
ATOM      3  C   UNL     1       0.210   5.332  -3.437  0.00  0.00    +0.207 A 
ATOM      4  O   UNL     1       0.677   5.224  -2.124  0.00  0.00    -0.286 OA
ATOM      5  C   UNL     1      -1.098   5.703  -3.704  0.00  0.00    +0.051 A 
ATOM      6  C   UNL     1      -1.462   6.242  -4.932  0.00  0.00    +0.031 A 
ATOM      7  C   UNL     1      -0.580   5.953  -5.967  0.00  0.00    +0.097 A 
ATOM      8  N   UNL     1       0.712   5.627  -5.719  0.00  0.00    -0.245 NA
ENDROOT
BRANCH   5   9
ATOM      9  C   UNL     1      -2.100   5.815  -2.598  0.00  0.00    +0.212 C 
ATOM     10  O   UNL     1      -2.860   4.636  -2.679  0.00  0.00    -0.215 OA
ENDBRANCH   5   9
BRANCH   6  11
ATOM     11  C   UNL     1      -2.410   7.396  -5.033  0.00  0.00    +0.210 C 
ATOM     12  O   UNL     1      -1.760   8.570  -4.631  0.00  0.00    -0.215 OA
ENDBRANCH   6  11
TORSDOF 2
ENDMDL
MODEL 6
REMARK VINA RESULT:      -4.9      7.814      9.597
REMARK  Name = 
REMARK  2 active torsions:
REMARK  status: ('A' for Active; 'I' for Inactive)
REMARK    1  A    between atoms: C_5  and  C_6
REMARK    2  A    between atoms: C_8  and  C_9
REMARK                            x       y       z     vdW  Elec       q    Type
REMARK                         _______ _______ _______ _____ _____    ______ ____
ROOT
ATOM      1  C   UNL     1       8.592   5.943 -12.480  0.00  0.00    +0.056 C 
ATOM      2  C   UNL     1       7.219   5.436 -12.183  0.00  0.00    +0.098 A 
ATOM      3  C   UNL     1       6.665   5.527 -10.912  0.00  0.00    +0.207 A 
ATOM      4  O   UNL     1       7.485   5.974  -9.872  0.00  0.00    -0.286 OA
ATOM      5  C   UNL     1       5.289   5.476 -10.770  0.00  0.00    +0.051 A 
ATOM      6  C   UNL     1       4.445   5.474 -11.874  0.00  0.00    +0.031 A 
ATOM      7  C   UNL     1       5.052   5.066 -13.057  0.00  0.00    +0.097 A 
ATOM      8  N   UNL     1       6.396   5.148 -13.221  0.00  0.00    -0.245 NA
ENDROOT
BRANCH   5   9
ATOM      9  C   UNL     1       4.651   5.718  -9.437  0.00  0.00    +0.212 C 
ATOM     10  O   UNL     1       4.265   4.445  -8.986  0.00  0.00    -0.215 OA
ENDBRANCH   5   9
BRANCH   6  11
ATOM     11  C   UNL     1       3.182   6.277 -11.899  0.00  0.00    +0.210 C 
ATOM     12  O   UNL     1       2.172   5.538 -12.528  0.00  0.00    -0.215 OA
ENDBRANCH   6  11
TORSDOF 2
ENDMDL
MODEL 7
REMARK VINA RESULT:      -4.7      2.270      3.918
REMARK  Name = 
REMARK  2 active torsions:
REMARK  status: ('A' for Active; 'I' for Inactive)
REMARK    1  A    between atoms: C_5  and  C_6
REMARK    2  A    between atoms: C_8  and  C_9
REMARK                            x       y       z     vdW  Elec       q    Type
REMARK                         _______ _______ _______ _____ _____    ______ ____
ROOT
ATOM      1  C   UNL     1      -3.472   6.146  -2.806  0.00  0.00    +0.056 C 
ATOM      2  C   UNL     1      -2.111   5.553  -2.974  0.00  0.00    +0.098 A 
ATOM      3  C   UNL     1      -1.466   5.544  -4.204  0.00  0.00    +0.207 A 
ATOM      4  O   UNL     1      -2.184   5.973  -5.324  0.00  0.00    -0.286 OA
ATOM      5  C   UNL     1      -0.087   5.415  -4.242  0.00  0.00    +0.051 A 
ATOM      6  C   UNL     1       0.675   5.432  -3.080  0.00  0.00    +0.031 A 
ATOM      7  C   UNL     1      -0.036   5.123  -1.926  0.00  0.00    +0.097 A 
ATOM      8  N   UNL     1      -1.381   5.282  -1.865  0.00  0.00    -0.245 NA
ENDROOT
BRANCH   5   9
ATOM      9  C   UNL     1       0.655   5.549  -5.535  0.00  0.00    +0.212 C 
ATOM     10  O   UNL     1       1.042   4.239  -5.866  0.00  0.00    -0.215 OA
ENDBRANCH   5   9
BRANCH   6  11
ATOM     11  C   UNL     1       1.975   6.170  -3.005  0.00  0.00    +0.210 C 
ATOM     12  O   UNL     1       3.021   5.254  -2.832  0.00  0.00    -0.215 OA
ENDBRANCH   6  11
TORSDOF 2
ENDMDL
MODEL 8
REMARK VINA RESULT:      -4.6      3.319      5.027
REMARK  Name = 
REMARK  2 active torsions:
REMARK  status: ('A' for Active; 'I' for Inactive)
REMARK    1  A    between atoms: C_5  and  C_6
REMARK    2  A    between atoms: C_8  and  C_9
REMARK                            x       y       z     vdW  Elec       q    Type
REMARK                         _______ _______ _______ _____ _____    ______ ____
ROOT
ATOM      1  C   UNL     1      -1.177   5.377  -6.749  0.00  0.00    +0.056 C 
ATOM      2  C   UNL     1       0.260   4.980  -6.652  0.00  0.00    +0.098 A 
ATOM      3  C   UNL     1       1.121   5.085  -7.737  0.00  0.00    +0.207 A 
ATOM      4  O   UNL     1       0.575   5.434  -8.975  0.00  0.00    -0.286 OA
ATOM      5  C   UNL     1       2.486   5.147  -7.512  0.00  0.00    +0.051 A 
ATOM      6  C   UNL     1       3.005   5.246  -6.226  0.00  0.00    +0.031 A 
ATOM      7  C   UNL     1       2.139   4.819  -5.226  0.00  0.00    +0.097 A 
ATOM      8  N   UNL     1       0.798   4.790  -5.422  0.00  0.00    -0.245 NA
ENDROOT
BRANCH   5   9
ATOM      9  C   UNL     1       3.434   5.408  -8.641  0.00  0.00    +0.212 C 
ATOM     10  O   UNL     1       3.888   4.137  -9.031  0.00  0.00    -0.215 OA
ENDBRANCH   5   9
BRANCH   6  11
ATOM     11  C   UNL     1       4.152   6.154  -5.910  0.00  0.00    +0.210 C 
ATOM     12  O   UNL     1       3.669   7.443  -5.651  0.00  0.00    -0.215 OA
ENDBRANCH   6  11
TORSDOF 2
ENDMDL
MODEL 9
REMARK VINA RESULT:      -4.6      9.208     10.998
REMARK  Name = 
REMARK  2 active torsions:
REMARK  status: ('A' for Active; 'I' for Inactive)
REMARK    1  A    between atoms: C_5  and  C_6
REMARK    2  A    between atoms: C_8  and  C_9
REMARK                            x       y       z     vdW  Elec       q    Type
REMARK                         _______ _______ _______ _____ _____    ______ ____
ROOT
ATOM      1  C   UNL     1       6.564   5.989 -10.043  0.00  0.00    +0.056 C 
ATOM      2  C   UNL     1       6.325   5.565 -11.456  0.00  0.00    +0.098 A 
ATOM      3  C   UNL     1       5.059   5.604 -12.026  0.00  0.00    +0.207 A 
ATOM      4  O   UNL     1       3.977   5.912 -11.196  0.00  0.00    -0.286 OA
ATOM      5  C   UNL     1       4.940   5.646 -13.405  0.00  0.00    +0.051 A 
ATOM      6  C   UNL     1       6.053   5.788 -14.224  0.00  0.00    +0.031 A 
ATOM      7  C   UNL     1       7.254   5.423 -13.626  0.00  0.00    +0.097 A 
ATOM      8  N   UNL     1       7.393   5.416 -12.277  0.00  0.00    -0.245 NA
ENDROOT
BRANCH   5   9
ATOM      9  C   UNL     1       3.602   5.838 -14.049  0.00  0.00    +0.212 C 
ATOM     10  O   UNL     1       3.157   4.539 -14.349  0.00  0.00    -0.215 OA
ENDBRANCH   5   9
BRANCH   6  11
ATOM     11  C   UNL     1       6.036   6.683 -15.424  0.00  0.00    +0.210 C 
ATOM     12  O   UNL     1       6.233   8.009 -15.019  0.00  0.00    -0.215 OA
ENDBRANCH   6  11
TORSDOF 2
ENDMDL
