MODEL 1
REMARK VINA RESULT:      -5.7      0.000      0.000
REMARK  Name = 
REMARK  11 active torsions:
REMARK  status: ('A' for Active; 'I' for Inactive)
REMARK    1  A    between atoms: N_4  and  C_5
REMARK    2  A    between atoms: N_4  and  C_10
REMARK    3  A    between atoms: C_5  and  C_6
REMARK    4  A    between atoms: C_6  and  C_8
REMARK    5  A    between atoms: C_13  and  C_14
REMARK    6  A    between atoms: N_16  and  C_17
REMARK    7  A    between atoms: C_17  and  C_18
REMARK    8  A    between atoms: C_22  and  C_23
REMARK    9  A    between atoms: N_25  and  C_26
REMARK   10  A    between atoms: C_26  and  C_27
REMARK   11  A    between atoms: C_27  and  C_29
REMARK                            x       y       z     vdW  Elec       q    Type
REMARK                         _______ _______ _______ _____ _____    ______ ____
ROOT
ATOM      1  C   UNL     1       2.071   8.042   0.548  0.00  0.00    +0.065 A 
ATOM      2  C   UNL     1       1.935   7.105  -0.468  0.00  0.00    +0.049 A 
ATOM      3  I   UNL     1       3.676   6.044  -1.007  0.00  0.00    -0.041 I 
ATOM      4  C   UNL     1       0.730   6.559  -0.843  0.00  0.00    +0.067 A 
ATOM      5  C   UNL     1      -0.420   6.947  -0.169  0.00  0.00    +0.040 A 
ATOM      6  I   UNL     1      -2.313   6.427  -0.960  0.00  0.00    -0.042 I 
ATOM      7  C   UNL     1      -0.297   7.830   0.896  0.00  0.00    +0.067 A 
ATOM      8  C   UNL     1       0.908   8.449   1.161  0.00  0.00    +0.049 A 
ATOM      9  I   UNL     1       1.074   9.512   2.960  0.00  0.00    -0.041 I 
ENDROOT
BRANCH   1  12
ATOM     10  C   UNL     1       3.775   9.933  -0.551  0.00  0.00    +0.095 C 
ATOM     11  C   UNL     1       3.336   9.993  -0.199  0.00  0.00    +0.230 C 
ATOM     12  N   UNL     1       3.241   8.863   0.613  0.00  0.00    -0.255 N 
ATOM     13  O   UNL     1       2.735  11.021   0.213  0.00  0.00    -0.275 OA
BRANCH  12  14
ATOM     14  C   UNL     1       3.981   9.010   1.863  0.00  0.00    +0.134 C 
BRANCH  14  15
ATOM     15  C   UNL     1       4.920   7.652   1.929  0.00  0.00    +0.205 C 
ATOM     16  O   UNL     1       6.195   8.474   2.058  0.00  0.00    -0.218 OA
BRANCH  15  17
ATOM     17  C   UNL     1       4.760   7.536   3.567  0.00  0.00    +0.217 C 
ATOM     18  O   UNL     1       3.601   6.772   3.750  0.00  0.00    -0.218 OA
ENDBRANCH  15  17
ENDBRANCH  14  15
ENDBRANCH  12  14
ENDBRANCH   1  12
BRANCH   4  19
ATOM     19  C   UNL     1       0.681   5.630  -1.983  0.00  0.00    +0.266 C 
ATOM     20  N   UNL     1       0.586   6.105  -3.329  0.00  0.00    -0.199 NA
ATOM     21  O   UNL     1       0.476   4.415  -1.790  0.00  0.00    -0.268 OA
BRANCH  20  22
ATOM     22  C   UNL     1       0.364   5.223  -4.471  0.00  0.00    +0.151 C 
BRANCH  22  23
ATOM     23  C   UNL     1       0.256   6.344  -5.680  0.00  0.00    +0.206 C 
ATOM     24  O   UNL     1      -0.476   7.344  -4.795  0.00  0.00    -0.218 OA
BRANCH  23  25
ATOM     25  C   UNL     1      -1.145   5.699  -6.275  0.00  0.00    +0.217 C 
ATOM     26  O   UNL     1      -2.147   6.489  -5.769  0.00  0.00    -0.218 OA
ENDBRANCH  23  25
ENDBRANCH  22  23
ENDBRANCH  20  22
ENDBRANCH   4  19
BRANCH   7  27
ATOM     27  C   UNL     1      -1.425   7.831   1.826  0.00  0.00    +0.266 C 
ATOM     28  N   UNL     1      -1.634   6.773   2.740  0.00  0.00    -0.199 NA
ATOM     29  O   UNL     1      -2.420   8.568   1.561  0.00  0.00    -0.268 OA
BRANCH  28  30
ATOM     30  C   UNL     1      -2.964   6.272   2.980  0.00  0.00    +0.151 C 
BRANCH  30  31
ATOM     31  C   UNL     1      -2.901   4.964   3.747  0.00  0.00    +0.205 C 
ATOM     32  O   UNL     1      -4.007   4.178   3.397  0.00  0.00    -0.218 OA
ENDBRANCH  30  31
ENDBRANCH  28  30
ENDBRANCH   7  27
TORSDOF 11
ENDMDL
MODEL 2
REMARK VINA RESULT:      -5.6      3.286      4.490
REMARK  Name = 
REMARK  11 active torsions:
REMARK  status: ('A' for Active; 'I' for Inactive)
REMARK    1  A    between atoms: N_4  and  C_5
REMARK    2  A    between atoms: N_4  and  C_10
REMARK    3  A    between atoms: C_5  and  C_6
REMARK    4  A    between atoms: C_6  and  C_8
REMARK    5  A    between atoms: C_13  and  C_14
REMARK    6  A    between atoms: N_16  and  C_17
REMARK    7  A    between atoms: C_17  and  C_18
REMARK    8  A    between atoms: C_22  and  C_23
REMARK    9  A    between atoms: N_25  and  C_26
REMARK   10  A    between atoms: C_26  and  C_27
REMARK   11  A    between atoms: C_27  and  C_29
REMARK                            x       y       z     vdW  Elec       q    Type
REMARK                         _______ _______ _______ _____ _____    ______ ____
ROOT
ATOM      1  C   UNL     1       2.137   6.215  -2.857  0.00  0.00    +0.065 A 
ATOM      2  C   UNL     1       1.936   5.919  -4.198  0.00  0.00    +0.049 A 
ATOM      3  I   UNL     1       3.442   4.787  -5.146  0.00  0.00    -0.041 I 
ATOM      4  C   UNL     1       0.705   5.957  -4.810  0.00  0.00    +0.067 A 
ATOM      5  C   UNL     1      -0.408   6.296  -4.053  0.00  0.00    +0.040 A 
ATOM      6  I   UNL     1      -2.234   6.734  -5.030  0.00  0.00    -0.042 I 
ATOM      7  C   UNL     1      -0.240   6.527  -2.693  0.00  0.00    +0.067 A 
ATOM      8  C   UNL     1       1.025   6.601  -2.145  0.00  0.00    +0.049 A 
ATOM      9  I   UNL     1       1.169   6.639  -0.054  0.00  0.00    -0.041 I 
ENDROOT
BRANCH   1  12
ATOM     10  C   UNL     1       4.411   7.799  -2.948  0.00  0.00    +0.095 C 
ATOM     11  C   UNL     1       3.946   7.840  -2.626  0.00  0.00    +0.230 C 
ATOM     12  N   UNL     1       3.444   6.560  -2.387  0.00  0.00    -0.255 N 
ATOM     13  O   UNL     1       3.554   8.742  -1.840  0.00  0.00    -0.275 OA
BRANCH  12  14
ATOM     14  C   UNL     1       3.977   5.971  -1.163  0.00  0.00    +0.134 C 
BRANCH  14  15
ATOM     15  C   UNL     1       4.413   4.442  -1.615  0.00  0.00    +0.205 C 
ATOM     16  O   UNL     1       5.226   4.239  -0.345  0.00  0.00    -0.218 OA
BRANCH  15  17
ATOM     17  C   UNL     1       3.067   3.780  -0.929  0.00  0.00    +0.217 C 
ATOM     18  O   UNL     1       3.501   2.546  -0.431  0.00  0.00    -0.218 OA
ENDBRANCH  15  17
ENDBRANCH  14  15
ENDBRANCH  12  14
ENDBRANCH   1  12
BRANCH   4  19
ATOM     19  C   UNL     1       0.607   5.701  -6.255  0.00  0.00    +0.266 C 
ATOM     20  N   UNL     1       1.114   6.633  -7.214  0.00  0.00    -0.199 NA
ATOM     21  O   UNL     1      -0.129   4.789  -6.679  0.00  0.00    -0.268 OA
BRANCH  20  22
ATOM     22  C   UNL     1       0.888   6.500  -8.651  0.00  0.00    +0.151 C 
BRANCH  22  23
ATOM     23  C   UNL     1       2.394   6.018  -9.132  0.00  0.00    +0.206 C 
ATOM     24  O   UNL     1       2.197   6.548 -10.547  0.00  0.00    -0.218 OA
BRANCH  23  25
ATOM     25  C   UNL     1       1.878   4.498  -9.528  0.00  0.00    +0.217 C 
ATOM     26  O   UNL     1       2.539   3.659  -8.666  0.00  0.00    -0.218 OA
ENDBRANCH  23  25
ENDBRANCH  22  23
ENDBRANCH  20  22
ENDBRANCH   4  19
BRANCH   7  27
ATOM     27  C   UNL     1      -1.459   6.415  -1.896  0.00  0.00    +0.266 C 
ATOM     28  N   UNL     1      -1.924   7.486  -1.098  0.00  0.00    -0.199 NA
ATOM     29  O   UNL     1      -1.885   5.257  -1.610  0.00  0.00    -0.268 OA
BRANCH  28  30
ATOM     30  C   UNL     1      -2.451   7.235   0.220  0.00  0.00    +0.151 C 
BRANCH  30  31
ATOM     31  C   UNL     1      -2.180   8.422   1.127  0.00  0.00    +0.205 C 
ATOM     32  O   UNL     1      -1.208   9.236   0.531  0.00  0.00    -0.218 OA
ENDBRANCH  30  31
ENDBRANCH  28  30
ENDBRANCH   7  27
TORSDOF 11
ENDMDL
MODEL 3
REMARK VINA RESULT:      -5.3      1.777      3.063
REMARK  Name = 
REMARK  11 active torsions:
REMARK  status: ('A' for Active; 'I' for Inactive)
REMARK    1  A    between atoms: N_4  and  C_5
REMARK    2  A    between atoms: N_4  and  C_10
REMARK    3  A    between atoms: C_5  and  C_6
REMARK    4  A    between atoms: C_6  and  C_8
REMARK    5  A    between atoms: C_13  and  C_14
REMARK    6  A    between atoms: N_16  and  C_17
REMARK    7  A    between atoms: C_17  and  C_18
REMARK    8  A    between atoms: C_22  and  C_23
REMARK    9  A    between atoms: N_25  and  C_26
REMARK   10  A    between atoms: C_26  and  C_27
REMARK   11  A    between atoms: C_27  and  C_29
REMARK                            x       y       z     vdW  Elec       q    Type
REMARK                         _______ _______ _______ _____ _____    ______ ____
ROOT
ATOM      1  C   UNL     1       1.831   7.491   0.733  0.00  0.00    +0.065 A 
ATOM      2  C   UNL     1       1.795   6.844  -0.494  0.00  0.00    +0.049 A 
ATOM      3  I   UNL     1       3.549   5.826  -1.073  0.00  0.00    -0.041 I 
ATOM      4  C   UNL     1       0.629   6.494  -1.136  0.00  0.00    +0.067 A 
ATOM      5  C   UNL     1      -0.584   6.785  -0.527  0.00  0.00    +0.040 A 
ATOM      6  I   UNL     1      -2.374   6.612  -1.643  0.00  0.00    -0.042 I 
ATOM      7  C   UNL     1      -0.569   7.370   0.733  0.00  0.00    +0.067 A 
ATOM      8  C   UNL     1       0.614   7.817   1.286  0.00  0.00    +0.049 A 
ATOM      9  I   UNL     1       0.581   8.393   3.302  0.00  0.00    -0.041 I 
ENDROOT
BRANCH   1  12
ATOM     10  C   UNL     1       3.964   7.843   2.469  0.00  0.00    +0.095 C 
ATOM     11  C   UNL     1       3.929   7.554   1.984  0.00  0.00    +0.230 C 
ATOM     12  N   UNL     1       3.013   8.186   1.141  0.00  0.00    -0.255 N 
ATOM     13  O   UNL     1       4.730   6.758   1.428  0.00  0.00    -0.275 OA
BRANCH  12  14
ATOM     14  C   UNL     1       3.647   9.162   0.260  0.00  0.00    +0.134 C 
BRANCH  14  15
ATOM     15  C   UNL     1       2.630  10.463   0.311  0.00  0.00    +0.205 C 
ATOM     16  O   UNL     1       3.344  11.044   1.522  0.00  0.00    -0.218 OA
BRANCH  15  17
ATOM     17  C   UNL     1       3.569  11.328  -0.733  0.00  0.00    +0.217 C 
ATOM     18  O   UNL     1       4.217  12.268   0.077  0.00  0.00    -0.218 OA
ENDBRANCH  15  17
ENDBRANCH  14  15
ENDBRANCH  12  14
ENDBRANCH   1  12
BRANCH   4  19
ATOM     19  C   UNL     1       0.695   5.878  -2.471  0.00  0.00    +0.266 C 
ATOM     20  N   UNL     1       0.934   6.662  -3.643  0.00  0.00    -0.199 NA
ATOM     21  O   UNL     1       0.307   4.705  -2.637  0.00  0.00    -0.268 OA
BRANCH  20  22
ATOM     22  C   UNL     1       0.839   6.122  -4.996  0.00  0.00    +0.151 C 
BRANCH  22  23
ATOM     23  C   UNL     1       2.431   5.780  -5.279  0.00  0.00    +0.206 C 
ATOM     24  O   UNL     1       2.594   6.955  -6.234  0.00  0.00    -0.218 OA
BRANCH  23  25
ATOM     25  C   UNL     1       2.079   4.717  -6.494  0.00  0.00    +0.217 C 
ATOM     26  O   UNL     1       1.173   3.839  -5.953  0.00  0.00    -0.218 OA
ENDBRANCH  23  25
ENDBRANCH  22  23
ENDBRANCH  20  22
ENDBRANCH   4  19
BRANCH   7  27
ATOM     27  C   UNL     1      -1.809   7.224   1.493  0.00  0.00    +0.266 C 
ATOM     28  N   UNL     1      -2.684   8.314   1.700  0.00  0.00    -0.199 NA
ATOM     29  O   UNL     1      -1.914   6.242   2.286  0.00  0.00    -0.268 OA
BRANCH  28  30
ATOM     30  C   UNL     1      -3.310   8.510   2.984  0.00  0.00    +0.151 C 
BRANCH  30  31
ATOM     31  C   UNL     1      -3.092   9.935   3.461  0.00  0.00    +0.205 C 
ATOM     32  O   UNL     1      -2.260  10.597   2.548  0.00  0.00    -0.218 OA
ENDBRANCH  30  31
ENDBRANCH  28  30
ENDBRANCH   7  27
TORSDOF 11
ENDMDL
MODEL 4
REMARK VINA RESULT:      -5.2      3.626      5.457
REMARK  Name = 
REMARK  11 active torsions:
REMARK  status: ('A' for Active; 'I' for Inactive)
REMARK    1  A    between atoms: N_4  and  C_5
REMARK    2  A    between atoms: N_4  and  C_10
REMARK    3  A    between atoms: C_5  and  C_6
REMARK    4  A    between atoms: C_6  and  C_8
REMARK    5  A    between atoms: C_13  and  C_14
REMARK    6  A    between atoms: N_16  and  C_17
REMARK    7  A    between atoms: C_17  and  C_18
REMARK    8  A    between atoms: C_22  and  C_23
REMARK    9  A    between atoms: N_25  and  C_26
REMARK   10  A    between atoms: C_26  and  C_27
REMARK   11  A    between atoms: C_27  and  C_29
REMARK                            x       y       z     vdW  Elec       q    Type
REMARK                         _______ _______ _______ _____ _____    ______ ____
ROOT
ATOM      1  C   UNL     1       1.730   5.600  -3.901  0.00  0.00    +0.065 A 
ATOM      2  C   UNL     1       1.309   5.389  -5.207  0.00  0.00    +0.049 A 
ATOM      3  I   UNL     1       2.534   4.156  -6.401  0.00  0.00    -0.041 I 
ATOM      4  C   UNL     1       0.015   5.580  -5.630  0.00  0.00    +0.067 A 
ATOM      5  C   UNL     1      -0.937   5.993  -4.707  0.00  0.00    +0.040 A 
ATOM      6  I   UNL     1      -2.826   6.658  -5.390  0.00  0.00    -0.042 I 
ATOM      7  C   UNL     1      -0.552   6.143  -3.380  0.00  0.00    +0.067 A 
ATOM      8  C   UNL     1       0.779   6.063  -3.021  0.00  0.00    +0.049 A 
ATOM      9  I   UNL     1       1.224   5.989  -0.974  0.00  0.00    -0.041 I 
ENDROOT
BRANCH   1  12
ATOM     10  C   UNL     1       4.086   4.822  -2.662  0.00  0.00    +0.095 C 
ATOM     11  C   UNL     1       3.889   4.711  -3.181  0.00  0.00    +0.230 C 
ATOM     12  N   UNL     1       3.120   5.790  -3.618  0.00  0.00    -0.255 N 
ATOM     13  O   UNL     1       4.299   3.927  -4.077  0.00  0.00    -0.275 OA
BRANCH  12  14
ATOM     14  C   UNL     1       3.906   6.770  -4.363  0.00  0.00    +0.134 C 
BRANCH  14  15
ATOM     15  C   UNL     1       4.981   7.346  -3.249  0.00  0.00    +0.205 C 
ATOM     16  O   UNL     1       5.497   8.405  -4.211  0.00  0.00    -0.218 OA
BRANCH  15  17
ATOM     17  C   UNL     1       3.870   8.383  -2.608  0.00  0.00    +0.217 C 
ATOM     18  O   UNL     1       4.138   8.375  -1.234  0.00  0.00    -0.218 OA
ENDBRANCH  15  17
ENDBRANCH  14  15
ENDBRANCH  12  14
ENDBRANCH   1  12
BRANCH   4  19
ATOM     19  C   UNL     1      -0.316   5.402  -7.052  0.00  0.00    +0.266 C 
ATOM     20  N   UNL     1       0.334   6.168  -8.070  0.00  0.00    -0.199 NA
ATOM     21  O   UNL     1      -1.332   4.759  -7.382  0.00  0.00    -0.268 OA
BRANCH  20  22
ATOM     22  C   UNL     1      -0.080   6.146  -9.470  0.00  0.00    +0.151 C 
BRANCH  22  23
ATOM     23  C   UNL     1       1.014   5.065 -10.074  0.00  0.00    +0.206 C 
ATOM     24  O   UNL     1       1.709   6.123 -10.922  0.00  0.00    -0.218 OA
BRANCH  23  25
ATOM     25  C   UNL     1       0.012   4.601 -11.303  0.00  0.00    +0.217 C 
ATOM     26  O   UNL     1       0.759   4.737 -12.447  0.00  0.00    -0.218 OA
ENDBRANCH  23  25
ENDBRANCH  22  23
ENDBRANCH  20  22
ENDBRANCH   4  19
BRANCH   7  27
ATOM     27  C   UNL     1      -1.649   6.118  -2.416  0.00  0.00    +0.266 C 
ATOM     28  N   UNL     1      -2.011   7.266  -1.674  0.00  0.00    -0.199 NA
ATOM     29  O   UNL     1      -2.022   4.996  -1.960  0.00  0.00    -0.268 OA
BRANCH  28  30
ATOM     30  C   UNL     1      -2.350   7.151  -0.277  0.00  0.00    +0.151 C 
BRANCH  30  31
ATOM     31  C   UNL     1      -1.712   8.281   0.511  0.00  0.00    +0.205 C 
ATOM     32  O   UNL     1      -2.523   8.581   1.613  0.00  0.00    -0.218 OA
ENDBRANCH  30  31
ENDBRANCH  28  30
ENDBRANCH   7  27
TORSDOF 11
ENDMDL
MODEL 5
REMARK VINA RESULT:      -5.2      1.605      2.040
REMARK  Name = 
REMARK  11 active torsions:
REMARK  status: ('A' for Active; 'I' for Inactive)
REMARK    1  A    between atoms: N_4  and  C_5
REMARK    2  A    between atoms: N_4  and  C_10
REMARK    3  A    between atoms: C_5  and  C_6
REMARK    4  A    between atoms: C_6  and  C_8
REMARK    5  A    between atoms: C_13  and  C_14
REMARK    6  A    between atoms: N_16  and  C_17
REMARK    7  A    between atoms: C_17  and  C_18
REMARK    8  A    between atoms: C_22  and  C_23
REMARK    9  A    between atoms: N_25  and  C_26
REMARK   10  A    between atoms: C_26  and  C_27
REMARK   11  A    between atoms: C_27  and  C_29
REMARK                            x       y       z     vdW  Elec       q    Type
REMARK                         _______ _______ _______ _____ _____    ______ ____
ROOT
ATOM      1  C   UNL     1       2.332   8.299   0.589  0.00  0.00    +0.065 A 
ATOM      2  C   UNL     1       2.198   7.293  -0.359  0.00  0.00    +0.049 A 
ATOM      3  I   UNL     1       3.964   6.281  -0.911  0.00  0.00    -0.041 I 
ATOM      4  C   UNL     1       1.006   6.669  -0.644  0.00  0.00    +0.067 A 
ATOM      5  C   UNL     1      -0.131   7.047   0.058  0.00  0.00    +0.040 A 
ATOM      6  I   UNL     1      -2.029   6.391  -0.611  0.00  0.00    -0.042 I 
ATOM      7  C   UNL     1      -0.006   8.002   1.059  0.00  0.00    +0.067 A 
ATOM      8  C   UNL     1       1.179   8.691   1.228  0.00  0.00    +0.049 A 
ATOM      9  I   UNL     1       1.370   9.875   2.947  0.00  0.00    -0.041 I 
ENDROOT
BRANCH   1  12
ATOM     10  C   UNL     1       3.910  10.169  -0.716  0.00  0.00    +0.095 C 
ATOM     11  C   UNL     1       3.478  10.238  -0.356  0.00  0.00    +0.230 C 
ATOM     12  N   UNL     1       3.462   9.176   0.548  0.00  0.00    -0.255 N 
ATOM     13  O   UNL     1       2.841  11.267  -0.008  0.00  0.00    -0.275 OA
BRANCH  12  14
ATOM     14  C   UNL     1       4.231   9.458   1.756  0.00  0.00    +0.134 C 
BRANCH  14  15
ATOM     15  C   UNL     1       5.304   8.205   1.846  0.00  0.00    +0.205 C 
ATOM     16  O   UNL     1       6.446   9.137   2.225  0.00  0.00    -0.218 OA
BRANCH  15  17
ATOM     17  C   UNL     1       4.939   7.913   3.428  0.00  0.00    +0.217 C 
ATOM     18  O   UNL     1       3.959   6.915   3.381  0.00  0.00    -0.218 OA
ENDBRANCH  15  17
ENDBRANCH  14  15
ENDBRANCH  12  14
ENDBRANCH   1  12
BRANCH   4  19
ATOM     19  C   UNL     1       0.953   5.667  -1.719  0.00  0.00    +0.266 C 
ATOM     20  N   UNL     1       0.877   6.052  -3.094  0.00  0.00    -0.199 NA
ATOM     21  O   UNL     1       0.729   4.471  -1.448  0.00  0.00    -0.268 OA
BRANCH  20  22
ATOM     22  C   UNL     1       0.652   5.099  -4.178  0.00  0.00    +0.151 C 
BRANCH  22  23
ATOM     23  C   UNL     1       1.742   5.664  -5.284  0.00  0.00    +0.206 C 
ATOM     24  O   UNL     1       0.652   6.217  -6.193  0.00  0.00    -0.218 OA
BRANCH  23  25
ATOM     25  C   UNL     1       1.811   4.220  -6.086  0.00  0.00    +0.217 C 
ATOM     26  O   UNL     1       2.593   4.458  -7.189  0.00  0.00    -0.218 OA
ENDBRANCH  23  25
ENDBRANCH  22  23
ENDBRANCH  20  22
ENDBRANCH   4  19
BRANCH   7  27
ATOM     27  C   UNL     1      -1.090   8.012   2.038  0.00  0.00    +0.266 C 
ATOM     28  N   UNL     1      -2.021   9.075   2.104  0.00  0.00    -0.199 NA
ATOM     29  O   UNL     1      -0.976   7.282   3.067  0.00  0.00    -0.268 OA
BRANCH  28  30
ATOM     30  C   UNL     1      -2.450   9.586   3.381  0.00  0.00    +0.151 C 
BRANCH  30  31
ATOM     31  C   UNL     1      -3.905   9.228   3.626  0.00  0.00    +0.205 C 
ATOM     32  O   UNL     1      -4.649  10.408   3.750  0.00  0.00    -0.218 OA
ENDBRANCH  30  31
ENDBRANCH  28  30
ENDBRANCH   7  27
TORSDOF 11
ENDMDL
MODEL 6
REMARK VINA RESULT:      -5.0      2.076      6.389
REMARK  Name = 
REMARK  11 active torsions:
REMARK  status: ('A' for Active; 'I' for Inactive)
REMARK    1  A    between atoms: N_4  and  C_5
REMARK    2  A    between atoms: N_4  and  C_10
REMARK    3  A    between atoms: C_5  and  C_6
REMARK    4  A    between atoms: C_6  and  C_8
REMARK    5  A    between atoms: C_13  and  C_14
REMARK    6  A    between atoms: N_16  and  C_17
REMARK    7  A    between atoms: C_17  and  C_18
REMARK    8  A    between atoms: C_22  and  C_23
REMARK    9  A    between atoms: N_25  and  C_26
REMARK   10  A    between atoms: C_26  and  C_27
REMARK   11  A    between atoms: C_27  and  C_29
REMARK                            x       y       z     vdW  Elec       q    Type
REMARK                         _______ _______ _______ _____ _____    ______ ____
ROOT
ATOM      1  C   UNL     1       1.691   7.028  -0.815  0.00  0.00    +0.065 A 
ATOM      2  C   UNL     1       2.716   7.856  -0.377  0.00  0.00    +0.049 A 
ATOM      3  I   UNL     1       4.202   8.341  -1.793  0.00  0.00    -0.041 I 
ATOM      4  C   UNL     1       2.620   8.667   0.729  0.00  0.00    +0.067 A 
ATOM      5  C   UNL     1       1.433   8.679   1.449  0.00  0.00    +0.040 A 
ATOM      6  I   UNL     1       1.380   9.609   3.349  0.00  0.00    -0.042 I 
ATOM      7  C   UNL     1       0.370   7.912   0.988  0.00  0.00    +0.067 A 
ATOM      8  C   UNL     1       0.547   7.019  -0.050  0.00  0.00    +0.049 A 
ATOM      9  I   UNL     1      -1.170   6.144  -0.874  0.00  0.00    -0.041 I 
ENDROOT
BRANCH   1  12
ATOM     10  C   UNL     1       3.126   4.741  -1.449  0.00  0.00    +0.095 C 
ATOM     11  C   UNL     1       2.629   4.803  -1.184  0.00  0.00    +0.230 C 
ATOM     12  N   UNL     1       1.980   5.931  -1.687  0.00  0.00    -0.255 N 
ATOM     13  O   UNL     1       1.903   3.975  -0.574  0.00  0.00    -0.275 OA
BRANCH  12  14
ATOM     14  C   UNL     1       1.096   5.615  -2.805  0.00  0.00    +0.134 C 
BRANCH  14  15
ATOM     15  C   UNL     1       1.625   6.602  -4.020  0.00  0.00    +0.205 C 
ATOM     16  O   UNL     1       2.016   5.415  -4.889  0.00  0.00    -0.218 OA
BRANCH  15  17
ATOM     17  C   UNL     1       0.126   6.684  -4.702  0.00  0.00    +0.217 C 
ATOM     18  O   UNL     1      -0.380   5.384  -4.589  0.00  0.00    -0.218 OA
ENDBRANCH  15  17
ENDBRANCH  14  15
ENDBRANCH  12  14
ENDBRANCH   1  12
BRANCH   4  19
ATOM     19  C   UNL     1       3.789   9.451   1.155  0.00  0.00    +0.266 C 
ATOM     20  N   UNL     1       3.921  10.836   0.823  0.00  0.00    -0.199 NA
ATOM     21  O   UNL     1       4.799   8.874   1.603  0.00  0.00    -0.268 OA
BRANCH  20  22
ATOM     22  C   UNL     1       5.135  11.605   1.077  0.00  0.00    +0.151 C 
BRANCH  22  23
ATOM     23  C   UNL     1       4.663  13.081   0.503  0.00  0.00    +0.206 C 
ATOM     24  O   UNL     1       4.254  12.512  -0.849  0.00  0.00    -0.218 OA
BRANCH  23  25
ATOM     25  C   UNL     1       6.186  13.467  -0.012  0.00  0.00    +0.217 C 
ATOM     26  O   UNL     1       6.023  13.942  -1.290  0.00  0.00    -0.218 OA
ENDBRANCH  23  25
ENDBRANCH  22  23
ENDBRANCH  20  22
ENDBRANCH   4  19
BRANCH   7  27
ATOM     27  C   UNL     1      -0.941   8.313   1.490  0.00  0.00    +0.266 C 
ATOM     28  N   UNL     1      -1.622   7.560   2.474  0.00  0.00    -0.199 NA
ATOM     29  O   UNL     1      -1.638   9.101   0.785  0.00  0.00    -0.268 OA
BRANCH  28  30
ATOM     30  C   UNL     1      -3.043   7.339   2.367  0.00  0.00    +0.151 C 
BRANCH  30  31
ATOM     31  C   UNL     1      -3.764   7.998   3.530  0.00  0.00    +0.205 C 
ATOM     32  O   UNL     1      -3.884   9.370   3.270  0.00  0.00    -0.218 OA
ENDBRANCH  30  31
ENDBRANCH  28  30
ENDBRANCH   7  27
TORSDOF 11
ENDMDL
MODEL 7
REMARK VINA RESULT:      -4.9      8.555     14.293
REMARK  Name = 
REMARK  11 active torsions:
REMARK  status: ('A' for Active; 'I' for Inactive)
REMARK    1  A    between atoms: N_4  and  C_5
REMARK    2  A    between atoms: N_4  and  C_10
REMARK    3  A    between atoms: C_5  and  C_6
REMARK    4  A    between atoms: C_6  and  C_8
REMARK    5  A    between atoms: C_13  and  C_14
REMARK    6  A    between atoms: N_16  and  C_17
REMARK    7  A    between atoms: C_17  and  C_18
REMARK    8  A    between atoms: C_22  and  C_23
REMARK    9  A    between atoms: N_25  and  C_26
REMARK   10  A    between atoms: C_26  and  C_27
REMARK   11  A    between atoms: C_27  and  C_29
REMARK                            x       y       z     vdW  Elec       q    Type
REMARK                         _______ _______ _______ _____ _____    ______ ____
ROOT
ATOM      1  C   UNL     1       2.337   5.889 -12.471  0.00  0.00    +0.065 A 
ATOM      2  C   UNL     1       2.471   5.651 -11.110  0.00  0.00    +0.049 A 
ATOM      3  I   UNL     1       0.920   4.559 -10.189  0.00  0.00    -0.041 I 
ATOM      4  C   UNL     1       3.670   5.719 -10.440  0.00  0.00    +0.067 A 
ATOM      5  C   UNL     1       4.820   6.026 -11.154  0.00  0.00    +0.040 A 
ATOM      6  I   UNL     1       6.594   6.510 -10.109  0.00  0.00    -0.042 I 
ATOM      7  C   UNL     1       4.719   6.198 -12.530  0.00  0.00    +0.067 A 
ATOM      8  C   UNL     1       3.483   6.246 -13.143  0.00  0.00    +0.049 A 
ATOM      9  I   UNL     1       3.442   6.193 -15.238  0.00  0.00    -0.041 I 
ENDROOT
BRANCH   1  12
ATOM     10  C   UNL     1       0.052   7.459 -12.548  0.00  0.00    +0.095 C 
ATOM     11  C   UNL     1       0.533   7.493 -12.845  0.00  0.00    +0.230 C 
ATOM     12  N   UNL     1       1.055   6.211 -13.019  0.00  0.00    -0.255 N 
ATOM     13  O   UNL     1       0.962   8.375 -13.635  0.00  0.00    -0.275 OA
BRANCH  12  14
ATOM     14  C   UNL     1       0.591   5.582 -14.253  0.00  0.00    +0.134 C 
BRANCH  14  15
ATOM     15  C   UNL     1       0.113   4.075 -13.774  0.00  0.00    +0.205 C 
ATOM     16  O   UNL     1      -0.508   3.780 -15.132  0.00  0.00    -0.218 OA
BRANCH  15  17
ATOM     17  C   UNL     1       1.550   3.400 -14.219  0.00  0.00    +0.217 C 
ATOM     18  O   UNL     1       1.236   2.066 -14.506  0.00  0.00    -0.218 OA
ENDBRANCH  15  17
ENDBRANCH  14  15
ENDBRANCH  12  14
ENDBRANCH   1  12
BRANCH   4  19
ATOM     19  C   UNL     1       3.696   5.525  -8.982  0.00  0.00    +0.266 C 
ATOM     20  N   UNL     1       3.303   6.567  -8.084  0.00  0.00    -0.199 NA
ATOM     21  O   UNL     1       4.286   4.543  -8.492  0.00  0.00    -0.268 OA
BRANCH  20  22
ATOM     22  C   UNL     1       3.473   6.478  -6.637  0.00  0.00    +0.151 C 
BRANCH  22  23
ATOM     23  C   UNL     1       1.914   6.170  -6.184  0.00  0.00    +0.206 C 
ATOM     24  O   UNL     1       2.093   6.838  -4.827  0.00  0.00    -0.218 OA
BRANCH  23  25
ATOM     25  C   UNL     1       2.284   4.669  -5.602  0.00  0.00    +0.217 C 
ATOM     26  O   UNL     1       1.244   3.863  -5.996  0.00  0.00    -0.218 OA
ENDBRANCH  23  25
ENDBRANCH  22  23
ENDBRANCH  20  22
ENDBRANCH   4  19
BRANCH   7  27
ATOM     27  C   UNL     1       5.976   6.055 -13.260  0.00  0.00    +0.266 C 
ATOM     28  N   UNL     1       6.466   7.080 -14.102  0.00  0.00    -0.199 NA
ATOM     29  O   UNL     1       6.429   4.888 -13.451  0.00  0.00    -0.268 OA
BRANCH  28  30
ATOM     30  C   UNL     1       7.059   6.755 -15.375  0.00  0.00    +0.151 C 
BRANCH  30  31
ATOM     31  C   UNL     1       6.998   7.954 -16.303  0.00  0.00    +0.205 C 
ATOM     32  O   UNL     1       5.881   8.732 -15.968  0.00  0.00    -0.218 OA
ENDBRANCH  30  31
ENDBRANCH  28  30
ENDBRANCH   7  27
TORSDOF 11
ENDMDL
MODEL 8
REMARK VINA RESULT:      -4.9      8.629     12.286
REMARK  Name = 
REMARK  11 active torsions:
REMARK  status: ('A' for Active; 'I' for Inactive)
REMARK    1  A    between atoms: N_4  and  C_5
REMARK    2  A    between atoms: N_4  and  C_10
REMARK    3  A    between atoms: C_5  and  C_6
REMARK    4  A    between atoms: C_6  and  C_8
REMARK    5  A    between atoms: C_13  and  C_14
REMARK    6  A    between atoms: N_16  and  C_17
REMARK    7  A    between atoms: C_17  and  C_18
REMARK    8  A    between atoms: C_22  and  C_23
REMARK    9  A    between atoms: N_25  and  C_26
REMARK   10  A    between atoms: C_26  and  C_27
REMARK   11  A    between atoms: C_27  and  C_29
REMARK                            x       y       z     vdW  Elec       q    Type
REMARK                         _______ _______ _______ _____ _____    ______ ____
ROOT
ATOM      1  C   UNL     1       4.685   5.907 -11.351  0.00  0.00    +0.065 A 
ATOM      2  C   UNL     1       3.699   6.006 -12.324  0.00  0.00    +0.049 A 
ATOM      3  I   UNL     1       4.318   5.735 -14.321  0.00  0.00    -0.041 I 
ATOM      4  C   UNL     1       2.356   5.868 -12.062  0.00  0.00    +0.067 A 
ATOM      5  C   UNL     1       1.951   5.601 -10.761  0.00  0.00    +0.040 A 
ATOM      6  I   UNL     1      -0.098   5.761 -10.257  0.00  0.00    -0.042 I 
ATOM      7  C   UNL     1       2.926   5.428  -9.786  0.00  0.00    +0.067 A 
ATOM      8  C   UNL     1       4.251   5.698 -10.062  0.00  0.00    +0.049 A 
ATOM      9  I   UNL     1       5.673   5.113  -8.637  0.00  0.00    -0.041 I 
ENDROOT
BRANCH   1  12
ATOM     10  C   UNL     1       6.376   8.077 -11.701  0.00  0.00    +0.095 C 
ATOM     11  C   UNL     1       6.246   7.782 -11.235  0.00  0.00    +0.230 C 
ATOM     12  N   UNL     1       5.984   6.459 -11.590  0.00  0.00    -0.255 N 
ATOM     13  O   UNL     1       6.512   7.985 -10.021  0.00  0.00    -0.275 OA
BRANCH  12  14
ATOM     14  C   UNL     1       7.175   5.617 -11.528  0.00  0.00    +0.134 C 
BRANCH  14  15
ATOM     15  C   UNL     1       8.346   6.532 -12.250  0.00  0.00    +0.205 C 
ATOM     16  O   UNL     1       9.435   5.541 -11.866  0.00  0.00    -0.218 OA
BRANCH  15  17
ATOM     17  C   UNL     1       8.115   5.803 -13.711  0.00  0.00    +0.217 C 
ATOM     18  O   UNL     1       7.546   4.563 -13.396  0.00  0.00    -0.218 OA
ENDBRANCH  15  17
ENDBRANCH  14  15
ENDBRANCH  12  14
ENDBRANCH   1  12
BRANCH   4  19
ATOM     19  C   UNL     1       1.383   6.065 -13.148  0.00  0.00    +0.266 C 
ATOM     20  N   UNL     1       1.008   7.375 -13.584  0.00  0.00    -0.199 NA
ATOM     21  O   UNL     1       0.688   5.110 -13.545  0.00  0.00    -0.268 OA
BRANCH  20  22
ATOM     22  C   UNL     1      -0.073   7.619 -14.535  0.00  0.00    +0.151 C 
BRANCH  22  23
ATOM     23  C   UNL     1       0.810   7.882 -15.907  0.00  0.00    +0.206 C 
ATOM     24  O   UNL     1       0.560   9.384 -15.874  0.00  0.00    -0.218 OA
BRANCH  23  25
ATOM     25  C   UNL     1      -0.480   7.593 -16.899  0.00  0.00    +0.217 C 
ATOM     26  O   UNL     1      -0.821   6.282 -16.673  0.00  0.00    -0.218 OA
ENDBRANCH  23  25
ENDBRANCH  22  23
ENDBRANCH  20  22
ENDBRANCH   4  19
BRANCH   7  27
ATOM     27  C   UNL     1       2.481   4.712  -8.593  0.00  0.00    +0.266 C 
ATOM     28  N   UNL     1       2.294   5.374  -7.357  0.00  0.00    -0.199 NA
ATOM     29  O   UNL     1       2.634   3.456  -8.555  0.00  0.00    -0.268 OA
BRANCH  28  30
ATOM     30  C   UNL     1       2.720   4.753  -6.128  0.00  0.00    +0.151 C 
BRANCH  30  31
ATOM     31  C   UNL     1       3.454   5.759  -5.260  0.00  0.00    +0.205 C 
ATOM     32  O   UNL     1       3.512   6.985  -5.936  0.00  0.00    -0.218 OA
ENDBRANCH  30  31
ENDBRANCH  28  30
ENDBRANCH   7  27
TORSDOF 11
ENDMDL
MODEL 9
REMARK VINA RESULT:      -4.9      8.013     13.725
REMARK  Name = 
REMARK  11 active torsions:
REMARK  status: ('A' for Active; 'I' for Inactive)
REMARK    1  A    between atoms: N_4  and  C_5
REMARK    2  A    between atoms: N_4  and  C_10
REMARK    3  A    between atoms: C_5  and  C_6
REMARK    4  A    between atoms: C_6  and  C_8
REMARK    5  A    between atoms: C_13  and  C_14
REMARK    6  A    between atoms: N_16  and  C_17
REMARK    7  A    between atoms: C_17  and  C_18
REMARK    8  A    between atoms: C_22  and  C_23
REMARK    9  A    between atoms: N_25  and  C_26
REMARK   10  A    between atoms: C_26  and  C_27
REMARK   11  A    between atoms: C_27  and  C_29
REMARK                            x       y       z     vdW  Elec       q    Type
REMARK                         _______ _______ _______ _____ _____    ______ ____
ROOT
ATOM      1  C   UNL     1       2.890   5.503 -11.408  0.00  0.00    +0.065 A 
ATOM      2  C   UNL     1       3.300   5.352 -10.090  0.00  0.00    +0.049 A 
ATOM      3  I   UNL     1       2.038   4.219  -8.837  0.00  0.00    -0.041 I 
ATOM      4  C   UNL     1       4.598   5.532  -9.671  0.00  0.00    +0.067 A 
ATOM      5  C   UNL     1       5.564   5.869 -10.610  0.00  0.00    +0.040 A 
ATOM      6  I   UNL     1       7.467   6.520  -9.953  0.00  0.00    -0.042 I 
ATOM      7  C   UNL     1       5.188   5.956 -11.945  0.00  0.00    +0.067 A 
ATOM      8  C   UNL     1       3.857   5.892 -12.306  0.00  0.00    +0.049 A 
ATOM      9  I   UNL     1       3.418   5.720 -14.349  0.00  0.00    -0.041 I 
ENDROOT
BRANCH   1  12
ATOM     10  C   UNL     1       0.483   4.657 -12.494  0.00  0.00    +0.095 C 
ATOM     11  C   UNL     1       0.682   4.619 -11.965  0.00  0.00    +0.230 C 
ATOM     12  N   UNL     1       1.507   5.714 -11.708  0.00  0.00    -0.255 N 
ATOM     13  O   UNL     1       0.248   4.007 -10.954  0.00  0.00    -0.275 OA
BRANCH  12  14
ATOM     14  C   UNL     1       0.779   6.836 -11.122  0.00  0.00    +0.134 C 
BRANCH  14  15
ATOM     15  C   UNL     1      -0.407   7.160 -12.226  0.00  0.00    +0.205 C 
ATOM     16  O   UNL     1      -0.880   8.377 -11.444  0.00  0.00    -0.218 OA
BRANCH  15  17
ATOM     17  C   UNL     1       0.606   8.075 -13.152  0.00  0.00    +0.217 C 
ATOM     18  O   UNL     1       0.268   7.743 -14.470  0.00  0.00    -0.218 OA
ENDBRANCH  15  17
ENDBRANCH  14  15
ENDBRANCH  12  14
ENDBRANCH   1  12
BRANCH   4  19
ATOM     19  C   UNL     1       4.917   5.423  -8.240  0.00  0.00    +0.266 C 
ATOM     20  N   UNL     1       4.319   6.291  -7.274  0.00  0.00    -0.199 NA
ATOM     21  O   UNL     1       5.891   4.739  -7.867  0.00  0.00    -0.268 OA
BRANCH  20  22
ATOM     22  C   UNL     1       4.732   6.331  -5.874  0.00  0.00    +0.151 C 
BRANCH  22  23
ATOM     23  C   UNL     1       3.358   6.940  -5.188  0.00  0.00    +0.206 C 
ATOM     24  O   UNL     1       4.128   7.635  -4.073  0.00  0.00    -0.218 OA
BRANCH  23  25
ATOM     25  C   UNL     1       3.095   5.578  -4.290  0.00  0.00    +0.217 C 
ATOM     26  O   UNL     1       2.177   4.848  -5.004  0.00  0.00    -0.218 OA
ENDBRANCH  23  25
ENDBRANCH  22  23
ENDBRANCH  20  22
ENDBRANCH   4  19
BRANCH   7  27
ATOM     27  C   UNL     1       6.288   5.850 -12.901  0.00  0.00    +0.266 C 
ATOM     28  N   UNL     1       6.549   6.867 -13.848  0.00  0.00    -0.199 NA
ATOM     29  O   UNL     1       6.763   4.701 -13.144  0.00  0.00    -0.268 OA
BRANCH  28  30
ATOM     30  C   UNL     1       6.904   6.524 -15.203  0.00  0.00    +0.151 C 
BRANCH  30  31
ATOM     31  C   UNL     1       6.880   7.763 -16.080  0.00  0.00    +0.205 C 
ATOM     32  O   UNL     1       5.706   8.482 -15.818  0.00  0.00    -0.218 OA
ENDBRANCH  30  31
ENDBRANCH  28  30
ENDBRANCH   7  27
TORSDOF 11
ENDMDL
