MODEL 1
REMARK VINA RESULT:      -2.5      0.000      0.000
REMARK  Name = 
REMARK  4 active torsions:
REMARK  status: ('A' for Active; 'I' for Inactive)
REMARK    1  A    between atoms: C_23  and  O_24
REMARK    2  A    between atoms: C_26  and  C_27
REMARK    3  A    between atoms: C_27  and  C_28
REMARK    4  A    between atoms: C_28  and  C_30
REMARK                            x       y       z     vdW  Elec       q    Type
REMARK                         _______ _______ _______ _____ _____    ______ ____
ROOT
ATOM      1  C   UNL     1       7.419   6.670 -17.362  0.00  0.00    -0.007 C 
ATOM      2  C   UNL     1       7.093   7.532 -17.421  0.00  0.00    -0.015 C 
ATOM      3  C   UNL     1       6.497   8.492 -16.249  0.00  0.00    +0.134 C 
ATOM      4  O   UNL     1       5.462   7.454 -15.935  0.00  0.00    -0.354 OA
ATOM      5  C   UNL     1       4.801   7.265 -17.275  0.00  0.00    +0.120 C 
ATOM      6  C   UNL     1       3.916   8.647 -17.095  0.00  0.00    +0.035 C 
ATOM      7  C   UNL     1       2.925   8.508 -18.222  0.00  0.00    +0.059 C 
ATOM      8  C   UNL     1       1.508   8.451 -17.813  0.00  0.00    +0.190 C 
ATOM      9  O   UNL     1       0.695   8.974 -18.749  0.00  0.00    -0.332 OA
ATOM     10  C   UNL     1      -0.707   8.655 -18.283  0.00  0.00    +0.174 C 
ATOM     11  C   UNL     1      -0.512   6.980 -18.323  0.00  0.00    +0.150 C 
ATOM     12  O   UNL     1      -1.203   6.882 -17.024  0.00  0.00    -0.351 OA
ATOM     13  C   UNL     1      -0.870   7.913 -15.948  0.00  0.00    +0.174 C 
ATOM     14  C   UNL     1       0.964   7.546 -16.017  0.00  0.00    +0.176 C 
ATOM     15  C   UNL     1       1.105   7.386 -14.395  0.00  0.00    +0.172 C 
ATOM     16  C   UNL     1      -0.357   6.829 -15.163  0.00  0.00    +0.145 C 
ATOM     17  C   UNL     1       0.147   5.393 -14.848  0.00  0.00    +0.035 C 
ATOM     18  C   UNL     1       0.119   5.961 -13.488  0.00  0.00    +0.033 C 
ATOM     19  C   UNL     1      -0.648   7.377 -13.170  0.00  0.00    +0.123 C 
ATOM     20  C   UNL     1       0.250   7.594 -11.806  0.00  0.00    +0.094 C 
ATOM     21  C   UNL     1       0.784   6.307 -11.384  0.00  0.00    +0.153 C 
ATOM     22  C   UNL     1       2.151   5.786 -11.749  0.00  0.00    +0.070 C 
ATOM     23  C   UNL     1       2.820   5.338 -10.364  0.00  0.00    +0.064 C 
ATOM     24  C   UNL     1       4.359   5.954 -10.664  0.00  0.00    +0.121 C 
ATOM     25  C   UNL     1       4.996   4.488 -11.011  0.00  0.00    +0.063 C 
ATOM     26  C   UNL     1       5.951   4.792 -12.321  0.00  0.00    +0.136 C 
ATOM     27  C   UNL     1       7.331   4.797 -11.491  0.00  0.00    -0.018 C 
ATOM     28  C   UNL     1       7.370   5.031 -10.244  0.00  0.00    -0.007 C 
ATOM     29  C   UNL     1       8.449   5.624 -12.318  0.00  0.00    +0.023 C 
ATOM     30  C   UNL     1       8.075   7.107 -11.710  0.00  0.00    +0.005 C 
ATOM     31  C   UNL     1       7.709   5.698 -13.745  0.00  0.00    +0.034 C 
ATOM     32  C   UNL     1       6.216   6.317 -13.755  0.00  0.00    +0.116 C 
ATOM     33  C   UNL     1       6.749   7.883 -13.815  0.00  0.00    +0.032 C 
ATOM     34  O   UNL     1       5.930   6.317 -12.261  0.00  0.00    -0.355 OA
ATOM     35  O   UNL     1       4.513   5.686  -9.190  0.00  0.00    -0.356 OA
ATOM     36  C   UNL     1       3.902   6.990  -8.788  0.00  0.00    +0.145 C 
ATOM     37  C   UNL     1       2.436   6.811  -9.656  0.00  0.00    +0.145 C 
ATOM     38  O   UNL     1      -0.041   5.430 -11.115  0.00  0.00    -0.296 OA
ATOM     39  O   UNL     1       0.309   7.151 -16.531  0.00  0.00    -0.351 OA
ATOM     40  O   UNL     1       0.195   8.461 -13.886  0.00  0.00    -0.353 OA
ATOM     41  C   UNL     1       0.043   8.728 -16.766  0.00  0.00    +0.174 C 
ATOM     42  O   UNL     1       1.497   8.866 -16.424  0.00  0.00    -0.332 OA
ATOM     43  C   UNL     1       1.112   7.044 -18.042  0.00  0.00    +0.088 C 
ATOM     44  C   UNL     1       7.540   7.895 -15.114  0.00  0.00    +0.036 C 
ATOM     45  C   UNL     1       5.933   8.014 -18.203  0.00  0.00    +0.054 C 
ENDROOT
BRANCH  37  46
ATOM     46  O   UNL     1       1.627   6.067  -8.639  0.00  0.00    -0.351 OA
ATOM     47  C   UNL     1       0.777   7.133  -8.207  0.00  0.00    +0.174 C 
ENDBRANCH  37  46
BRANCH  36  48
ATOM     48  C   UNL     1       3.339   6.539  -7.318  0.00  0.00    +0.066 C 
BRANCH  48  49
ATOM     49  C   UNL     1       4.420   5.457  -6.739  0.00  0.00    +0.173 C 
ATOM     50  O   UNL     1       3.344   4.575  -6.123  0.00  0.00    -0.221 OA
BRANCH  49  51
ATOM     51  C   UNL     1       4.603   6.222  -5.293  0.00  0.00    +0.142 C 
ATOM     52  N   UNL     1       3.568   7.173  -5.144  0.00  0.00    -0.129 NA
ENDBRANCH  49  51
ENDBRANCH  48  49
ENDBRANCH  36  48
TORSDOF 4
ENDMDL
MODEL 2
REMARK VINA RESULT:      -1.4      6.936     13.729
REMARK  Name = 
REMARK  4 active torsions:
REMARK  status: ('A' for Active; 'I' for Inactive)
REMARK    1  A    between atoms: C_23  and  O_24
REMARK    2  A    between atoms: C_26  and  C_27
REMARK    3  A    between atoms: C_27  and  C_28
REMARK    4  A    between atoms: C_28  and  C_30
REMARK                            x       y       z     vdW  Elec       q    Type
REMARK                         _______ _______ _______ _____ _____    ______ ____
ROOT
ATOM      1  C   UNL     1       5.283   8.596   1.118  0.00  0.00    -0.007 C 
ATOM      2  C   UNL     1       4.961   7.871   1.592  0.00  0.00    -0.015 C 
ATOM      3  C   UNL     1       4.303   6.488   1.042  0.00  0.00    +0.134 C 
ATOM      4  O   UNL     1       3.252   7.282   0.325  0.00  0.00    -0.354 OA
ATOM      5  C   UNL     1       2.665   8.095   1.448  0.00  0.00    +0.120 C 
ATOM      6  C   UNL     1       1.773   6.814   1.984  0.00  0.00    +0.035 C 
ATOM      7  C   UNL     1       0.844   7.491   2.959  0.00  0.00    +0.059 C 
ATOM      8  C   UNL     1      -0.593   7.384   2.640  0.00  0.00    +0.190 C 
ATOM      9  O   UNL     1      -1.354   7.384   3.749  0.00  0.00    -0.332 OA
ATOM     10  C   UNL     1      -2.779   7.481   3.256  0.00  0.00    +0.174 C 
ATOM     11  C   UNL     1      -2.583   8.972   2.493  0.00  0.00    +0.150 C 
ATOM     12  O   UNL     1      -3.344   8.465   1.337  0.00  0.00    -0.351 OA
ATOM     13  C   UNL     1      -3.069   7.041   0.858  0.00  0.00    +0.174 C 
ATOM     14  C   UNL     1      -1.235   7.351   0.658  0.00  0.00    +0.176 C 
ATOM     15  C   UNL     1      -1.182   6.726  -0.853  0.00  0.00    +0.172 C 
ATOM     16  C   UNL     1      -2.600   7.615  -0.368  0.00  0.00    +0.145 C 
ATOM     17  C   UNL     1      -2.115   8.721  -1.346  0.00  0.00    +0.035 C 
ATOM     18  C   UNL     1      -2.217   7.581  -2.276  0.00  0.00    +0.033 C 
ATOM     19  C   UNL     1      -2.999   6.201  -1.852  0.00  0.00    +0.123 C 
ATOM     20  C   UNL     1      -2.176   5.345  -2.994  0.00  0.00    +0.094 C 
ATOM     21  C   UNL     1      -1.667   6.269  -3.998  0.00  0.00    +0.153 C 
ATOM     22  C   UNL     1      -0.282   6.865  -3.988  0.00  0.00    +0.070 C 
ATOM     23  C   UNL     1       0.310   6.593  -5.451  0.00  0.00    +0.064 C 
ATOM     24  C   UNL     1       1.864   6.153  -4.970  0.00  0.00    +0.121 C 
ATOM     25  C   UNL     1       2.517   7.592  -5.387  0.00  0.00    +0.063 C 
ATOM     26  C   UNL     1       3.542   7.917  -4.135  0.00  0.00    +0.136 C 
ATOM     27  C   UNL     1       4.875   7.488  -4.931  0.00  0.00    -0.018 C 
ATOM     28  C   UNL     1       4.847   6.694  -5.920  0.00  0.00    -0.007 C 
ATOM     29  C   UNL     1       6.038   7.119  -3.867  0.00  0.00    +0.023 C 
ATOM     30  C   UNL     1       5.632   5.534  -3.685  0.00  0.00    +0.005 C 
ATOM     31  C   UNL     1       5.376   7.744  -2.539  0.00  0.00    +0.034 C 
ATOM     32  C   UNL     1       3.886   7.240  -2.167  0.00  0.00    +0.116 C 
ATOM     33  C   UNL     1       4.423   5.873  -1.402  0.00  0.00    +0.032 C 
ATOM     34  O   UNL     1       3.520   6.544  -3.469  0.00  0.00    -0.355 OA
ATOM     35  O   UNL     1       1.938   5.692  -6.402  0.00  0.00    -0.356 OA
ATOM     36  C   UNL     1       1.306   4.367  -6.113  0.00  0.00    +0.145 C 
ATOM     37  C   UNL     1      -0.110   4.970  -5.362  0.00  0.00    +0.145 C 
ATOM     38  O   UNL     1      -2.506   6.937  -4.608  0.00  0.00    -0.296 OA
ATOM     39  O   UNL     1      -1.861   7.958   0.956  0.00  0.00    -0.351 OA
ATOM     40  O   UNL     1      -2.118   5.560  -0.751  0.00  0.00    -0.353 OA
ATOM     41  C   UNL     1      -2.113   6.684   1.919  0.00  0.00    +0.174 C 
ATOM     42  O   UNL     1      -0.679   6.365   1.613  0.00  0.00    -0.332 OA
ATOM     43  C   UNL     1      -0.977   8.743   2.198  0.00  0.00    +0.088 C 
ATOM     44  C   UNL     1       5.283   6.454  -0.291  0.00  0.00    +0.036 C 
ATOM     45  C   UNL     1       3.847   7.843   2.564  0.00  0.00    +0.054 C 
ENDROOT
BRANCH  37  46
ATOM     46  O   UNL     1      -0.974   5.168  -6.569  0.00  0.00    -0.351 OA
ATOM     47  C   UNL     1      -2.090   4.364  -6.179  0.00  0.00    +0.174 C 
ENDBRANCH  37  46
BRANCH  36  48
ATOM     48  C   UNL     1       0.664   4.087  -7.593  0.00  0.00    +0.066 C 
BRANCH  48  49
ATOM     49  C   UNL     1       1.630   4.872  -8.654  0.00  0.00    +0.173 C 
ATOM     50  O   UNL     1       0.963   4.240  -9.868  0.00  0.00    -0.221 OA
BRANCH  49  51
ATOM     51  C   UNL     1       2.774   3.690  -8.682  0.00  0.00    +0.142 C 
ATOM     52  N   UNL     1       4.023   4.269  -9.002  0.00  0.00    -0.129 NA
ENDBRANCH  49  51
ENDBRANCH  48  49
ENDBRANCH  36  48
TORSDOF 4
ENDMDL
MODEL 3
REMARK VINA RESULT:       0.3      7.387     12.908
REMARK  Name = 
REMARK  4 active torsions:
REMARK  status: ('A' for Active; 'I' for Inactive)
REMARK    1  A    between atoms: C_23  and  O_24
REMARK    2  A    between atoms: C_26  and  C_27
REMARK    3  A    between atoms: C_27  and  C_28
REMARK    4  A    between atoms: C_28  and  C_30
REMARK                            x       y       z     vdW  Elec       q    Type
REMARK                         _______ _______ _______ _____ _____    ______ ____
ROOT
ATOM      1  C   UNL     1      -3.948   7.011  -2.981  0.00  0.00    -0.007 C 
ATOM      2  C   UNL     1      -3.728   6.123  -3.112  0.00  0.00    -0.015 C 
ATOM      3  C   UNL     1      -2.588   5.223  -2.378  0.00  0.00    +0.134 C 
ATOM      4  O   UNL     1      -1.541   6.198  -2.826  0.00  0.00    -0.354 OA
ATOM      5  C   UNL     1      -1.757   6.217  -4.316  0.00  0.00    +0.120 C 
ATOM      6  C   UNL     1      -0.951   4.789  -4.506  0.00  0.00    +0.035 C 
ATOM      7  C   UNL     1      -0.775   4.749  -6.002  0.00  0.00    +0.059 C 
ATOM      8  C   UNL     1       0.624   4.727  -6.474  0.00  0.00    +0.190 C 
ATOM      9  O   UNL     1       0.750   4.062  -7.636  0.00  0.00    -0.332 OA
ATOM     10  C   UNL     1       2.173   4.306  -8.082  0.00  0.00    +0.174 C 
ATOM     11  C   UNL     1       2.019   5.981  -8.201  0.00  0.00    +0.150 C 
ATOM     12  O   UNL     1       3.328   6.135  -7.540  0.00  0.00    -0.351 OA
ATOM     13  C   UNL     1       3.649   5.232  -6.352  0.00  0.00    +0.174 C 
ATOM     14  C   UNL     1       2.108   5.738  -5.417  0.00  0.00    +0.176 C 
ATOM     15  C   UNL     1       2.918   6.048  -4.030  0.00  0.00    +0.172 C 
ATOM     16  C   UNL     1       3.692   6.417  -5.547  0.00  0.00    +0.145 C 
ATOM     17  C   UNL     1       3.482   7.910  -5.174  0.00  0.00    +0.035 C 
ATOM     18  C   UNL     1       4.270   7.462  -4.011  0.00  0.00    +0.033 C 
ATOM     19  C   UNL     1       5.057   6.022  -4.018  0.00  0.00    +0.123 C 
ATOM     20  C   UNL     1       5.092   5.996  -2.371  0.00  0.00    +0.094 C 
ATOM     21  C   UNL     1       4.914   7.354  -1.875  0.00  0.00    +0.153 C 
ATOM     22  C   UNL     1       3.592   7.949  -1.464  0.00  0.00    +0.070 C 
ATOM     23  C   UNL     1       3.838   8.568  -0.007  0.00  0.00    +0.064 C 
ATOM     24  C   UNL     1       2.391   8.054   0.687  0.00  0.00    +0.121 C 
ATOM     25  C   UNL     1       1.695   9.531   0.591  0.00  0.00    +0.063 C 
ATOM     26  C   UNL     1       0.159   9.193   0.094  0.00  0.00    +0.136 C 
ATOM     27  C   UNL     1      -0.503   9.371   1.551  0.00  0.00    -0.018 C 
ATOM     28  C   UNL     1       0.170   9.249   2.620  0.00  0.00    -0.007 C 
ATOM     29  C   UNL     1      -1.907   8.568   1.602  0.00  0.00    +0.023 C 
ATOM     30  C   UNL     1      -1.279   7.117   2.062  0.00  0.00    +0.005 C 
ATOM     31  C   UNL     1      -2.112   8.311   0.027  0.00  0.00    +0.034 C 
ATOM     32  C   UNL     1      -0.901   7.576  -0.751  0.00  0.00    +0.116 C 
ATOM     33  C   UNL     1      -1.400   6.058  -0.316  0.00  0.00    +0.032 C 
ATOM     34  O   UNL     1       0.184   7.682   0.310  0.00  0.00    -0.355 OA
ATOM     35  O   UNL     1       3.107   8.460   1.948  0.00  0.00    -0.356 OA
ATOM     36  C   UNL     1       3.817   7.151   2.085  0.00  0.00    +0.145 C 
ATOM     37  C   UNL     1       4.531   7.136   0.528  0.00  0.00    +0.145 C 
ATOM     38  O   UNL     1       5.760   8.182  -2.223  0.00  0.00    -0.296 OA
ATOM     39  O   UNL     1       2.361   6.032  -6.253  0.00  0.00    -0.351 OA
ATOM     40  O   UNL     1       3.938   4.951  -4.001  0.00  0.00    -0.353 OA
ATOM     41  C   UNL     1       2.419   4.424  -6.411  0.00  0.00    +0.174 C 
ATOM     42  O   UNL     1       1.416   4.434  -5.296  0.00  0.00    -0.332 OA
ATOM     43  C   UNL     1       0.842   6.073  -7.049  0.00  0.00    +0.088 C 
ATOM     44  C   UNL     1      -2.789   5.998  -0.931  0.00  0.00    +0.036 C 
ATOM     45  C   UNL     1      -3.229   5.484  -4.349  0.00  0.00    +0.054 C 
ENDROOT
BRANCH  37  46
ATOM     46  O   UNL     1       5.788   7.897   0.816  0.00  0.00    -0.351 OA
ATOM     47  C   UNL     1       6.633   6.803   1.180  0.00  0.00    +0.174 C 
ENDBRANCH  37  46
BRANCH  36  48
ATOM     48  C   UNL     1       5.124   7.680   2.917  0.00  0.00    +0.066 C 
BRANCH  48  49
ATOM     49  C   UNL     1       4.621   8.998   3.746  0.00  0.00    +0.173 C 
ATOM     50  O   UNL     1       4.265   9.768   2.481  0.00  0.00    -0.221 OA
BRANCH  49  51
ATOM     51  C   UNL     1       6.102   9.717   3.750  0.00  0.00    +0.142 C 
ATOM     52  N   UNL     1       5.932  11.116   3.647  0.00  0.00    -0.129 NA
ENDBRANCH  49  51
ENDBRANCH  48  49
ENDBRANCH  36  48
TORSDOF 4
ENDMDL
MODEL 4
REMARK VINA RESULT:       0.4      6.417     13.559
REMARK  Name = 
REMARK  4 active torsions:
REMARK  status: ('A' for Active; 'I' for Inactive)
REMARK    1  A    between atoms: C_23  and  O_24
REMARK    2  A    between atoms: C_26  and  C_27
REMARK    3  A    between atoms: C_27  and  C_28
REMARK    4  A    between atoms: C_28  and  C_30
REMARK                            x       y       z     vdW  Elec       q    Type
REMARK                         _______ _______ _______ _____ _____    ______ ____
ROOT
ATOM      1  C   UNL     1      -4.142   5.714  -2.979  0.00  0.00    -0.007 C 
ATOM      2  C   UNL     1      -4.073   6.617  -2.791  0.00  0.00    -0.015 C 
ATOM      3  C   UNL     1      -2.984   7.702  -3.325  0.00  0.00    +0.134 C 
ATOM      4  O   UNL     1      -1.879   6.859  -2.761  0.00  0.00    -0.354 OA
ATOM      5  C   UNL     1      -2.295   6.736  -1.318  0.00  0.00    +0.120 C 
ATOM      6  C   UNL     1      -1.737   8.250  -0.970  0.00  0.00    +0.035 C 
ATOM      7  C   UNL     1      -1.779   8.239   0.536  0.00  0.00    +0.059 C 
ATOM      8  C   UNL     1      -0.476   8.430   1.205  0.00  0.00    +0.190 C 
ATOM      9  O   UNL     1      -0.610   9.047   2.393  0.00  0.00    -0.332 OA
ATOM     10  C   UNL     1       0.758   8.980   3.032  0.00  0.00    +0.174 C 
ATOM     11  C   UNL     1       0.831   7.296   3.077  0.00  0.00    +0.150 C 
ATOM     12  O   UNL     1       2.228   7.359   2.608  0.00  0.00    -0.351 OA
ATOM     13  C   UNL     1       2.577   8.357   1.506  0.00  0.00    +0.174 C 
ATOM     14  C   UNL     1       1.270   7.690   0.344  0.00  0.00    +0.176 C 
ATOM     15  C   UNL     1       2.301   7.565  -0.920  0.00  0.00    +0.172 C 
ATOM     16  C   UNL     1       2.902   7.231   0.681  0.00  0.00    +0.145 C 
ATOM     17  C   UNL     1       2.963   5.744   0.236  0.00  0.00    +0.035 C 
ATOM     18  C   UNL     1       3.832   6.354  -0.787  0.00  0.00    +0.033 C 
ATOM     19  C   UNL     1       4.394   7.888  -0.623  0.00  0.00    +0.123 C 
ATOM     20  C   UNL     1       4.653   8.001  -2.246  0.00  0.00    +0.094 C 
ATOM     21  C   UNL     1       4.744   6.659  -2.802  0.00  0.00    +0.153 C 
ATOM     22  C   UNL     1       3.592   5.907  -3.419  0.00  0.00    +0.070 C 
ATOM     23  C   UNL     1       4.124   5.403  -4.842  0.00  0.00    +0.064 C 
ATOM     24  C   UNL     1       2.729   5.745  -5.723  0.00  0.00    +0.121 C 
ATOM     25  C   UNL     1       2.247   4.184  -5.773  0.00  0.00    +0.063 C 
ATOM     26  C   UNL     1       0.624   4.280  -5.493  0.00  0.00    +0.136 C 
ATOM     27  C   UNL     1       0.204   4.086  -7.035  0.00  0.00    -0.018 C 
ATOM     28  C   UNL     1       0.993   4.353  -7.991  0.00  0.00    -0.007 C 
ATOM     29  C   UNL     1      -1.281   4.688  -7.264  0.00  0.00    +0.023 C 
ATOM     30  C   UNL     1      -0.811   6.233  -7.584  0.00  0.00    +0.005 C 
ATOM     31  C   UNL     1      -1.737   4.834  -5.728  0.00  0.00    +0.034 C 
ATOM     32  C   UNL     1      -0.765   5.690  -4.761  0.00  0.00    +0.116 C 
ATOM     33  C   UNL     1      -1.413   7.144  -5.218  0.00  0.00    +0.032 C 
ATOM     34  O   UNL     1       0.461   5.789  -5.657  0.00  0.00    -0.355 OA
ATOM     35  O   UNL     1       3.664   5.507  -6.878  0.00  0.00    -0.356 OA
ATOM     36  C   UNL     1       4.189   6.907  -6.872  0.00  0.00    +0.145 C 
ATOM     37  C   UNL     1       4.671   6.942  -5.228  0.00  0.00    +0.145 C 
ATOM     38  O   UNL     1       5.645   5.940  -2.361  0.00  0.00    -0.296 OA
ATOM     39  O   UNL     1       1.445   7.391   1.198  0.00  0.00    -0.351 OA
ATOM     40  O   UNL     1       3.146   8.793  -0.769  0.00  0.00    -0.353 OA
ATOM     41  C   UNL     1       1.247   8.982   1.411  0.00  0.00    +0.174 C 
ATOM     42  O   UNL     1       0.421   8.889   0.163  0.00  0.00    -0.332 OA
ATOM     43  C   UNL     1      -0.148   7.101   1.764  0.00  0.00    +0.088 C 
ATOM     44  C   UNL     1      -2.868   6.979  -4.809  0.00  0.00    +0.036 C 
ATOM     45  C   UNL     1      -3.847   7.255  -1.476  0.00  0.00    +0.054 C 
ENDROOT
BRANCH  37  46
ATOM     46  O   UNL     1       6.052   6.378  -5.355  0.00  0.00    -0.351 OA
ATOM     47  C   UNL     1       6.771   7.384  -4.638  0.00  0.00    +0.174 C 
ENDBRANCH  37  46
BRANCH  36  48
ATOM     48  C   UNL     1       5.662   6.607  -7.522  0.00  0.00    +0.066 C 
BRANCH  48  49
ATOM     49  C   UNL     1       5.430   5.416  -8.620  0.00  0.00    +0.173 C 
ATOM     50  O   UNL     1       6.878   5.445  -9.091  0.00  0.00    -0.221 OA
BRANCH  49  51
ATOM     51  C   UNL     1       5.027   6.446  -9.839  0.00  0.00    +0.142 C 
ATOM     52  N   UNL     1       3.757   6.083 -10.344  0.00  0.00    -0.129 NA
ENDBRANCH  49  51
ENDBRANCH  48  49
ENDBRANCH  36  48
TORSDOF 4
ENDMDL
MODEL 5
REMARK VINA RESULT:       0.5      7.341     11.519
REMARK  Name = 
REMARK  4 active torsions:
REMARK  status: ('A' for Active; 'I' for Inactive)
REMARK    1  A    between atoms: C_23  and  O_24
REMARK    2  A    between atoms: C_26  and  C_27
REMARK    3  A    between atoms: C_27  and  C_28
REMARK    4  A    between atoms: C_28  and  C_30
REMARK                            x       y       z     vdW  Elec       q    Type
REMARK                         _______ _______ _______ _____ _____    ______ ____
ROOT
ATOM      1  C   UNL     1       6.120   6.084  -4.025  0.00  0.00    -0.007 C 
ATOM      2  C   UNL     1       5.842   6.725  -4.629  0.00  0.00    -0.015 C 
ATOM      3  C   UNL     1       4.814   7.969  -4.416  0.00  0.00    +0.134 C 
ATOM      4  O   UNL     1       3.746   7.004  -3.994  0.00  0.00    -0.354 OA
ATOM      5  C   UNL     1       3.693   6.071  -5.176  0.00  0.00    +0.120 C 
ATOM      6  C   UNL     1       2.805   7.148  -6.056  0.00  0.00    +0.035 C 
ATOM      7  C   UNL     1       2.363   6.288  -7.212  0.00  0.00    +0.059 C 
ATOM      8  C   UNL     1       0.903   6.126  -7.356  0.00  0.00    +0.190 C 
ATOM      9  O   UNL     1       0.541   5.959  -8.641  0.00  0.00    -0.332 OA
ATOM     10  C   UNL     1      -0.926   5.603  -8.600  0.00  0.00    +0.174 C 
ATOM     11  C   UNL     1      -0.724   4.192  -7.699  0.00  0.00    +0.150 C 
ATOM     12  O   UNL     1      -1.886   4.569  -6.873  0.00  0.00    -0.351 OA
ATOM     13  C   UNL     1      -2.027   6.028  -6.447  0.00  0.00    +0.174 C 
ATOM     14  C   UNL     1      -0.324   6.076  -5.673  0.00  0.00    +0.176 C 
ATOM     15  C   UNL     1      -0.858   6.731  -4.272  0.00  0.00    +0.172 C 
ATOM     16  C   UNL     1      -1.875   5.579  -5.094  0.00  0.00    +0.145 C 
ATOM     17  C   UNL     1      -1.537   4.605  -3.932  0.00  0.00    +0.035 C 
ATOM     18  C   UNL     1      -2.123   5.723  -3.169  0.00  0.00    +0.033 C 
ATOM     19  C   UNL     1      -2.959   6.920  -3.919  0.00  0.00    +0.123 C 
ATOM     20  C   UNL     1      -2.700   7.940  -2.651  0.00  0.00    +0.094 C 
ATOM     21  C   UNL     1      -2.379   7.150  -1.471  0.00  0.00    +0.153 C 
ATOM     22  C   UNL     1      -0.980   6.828  -1.011  0.00  0.00    +0.070 C 
ATOM     23  C   UNL     1      -0.934   7.237   0.537  0.00  0.00    +0.064 C 
ATOM     24  C   UNL     1       0.590   7.955   0.520  0.00  0.00    +0.121 C 
ATOM     25  C   UNL     1       1.320   6.674   1.227  0.00  0.00    +0.063 C 
ATOM     26  C   UNL     1       2.726   6.525   0.378  0.00  0.00    +0.136 C 
ATOM     27  C   UNL     1       3.646   7.216   1.505  0.00  0.00    -0.018 C 
ATOM     28  C   UNL     1       3.170   8.010   2.374  0.00  0.00    -0.007 C 
ATOM     29  C   UNL     1       5.000   7.777   0.821  0.00  0.00    +0.023 C 
ATOM     30  C   UNL     1       4.403   9.252   0.401  0.00  0.00    +0.005 C 
ATOM     31  C   UNL     1       4.909   7.011  -0.592  0.00  0.00    +0.034 C 
ATOM     32  C   UNL     1       3.548   7.215  -1.439  0.00  0.00    +0.116 C 
ATOM     33  C   UNL     1       4.051   8.644  -2.109  0.00  0.00    +0.032 C 
ATOM     34  O   UNL     1       2.675   7.855  -0.370  0.00  0.00    -0.355 OA
ATOM     35  O   UNL     1       0.129   8.450   1.865  0.00  0.00    -0.356 OA
ATOM     36  C   UNL     1      -0.600   9.624   1.294  0.00  0.00    +0.145 C 
ATOM     37  C   UNL     1      -1.581   8.748   0.197  0.00  0.00    +0.145 C 
ATOM     38  O   UNL     1      -3.237   6.348  -1.095  0.00  0.00    -0.296 OA
ATOM     39  O   UNL     1      -0.709   5.356  -6.099  0.00  0.00    -0.351 OA
ATOM     40  O   UNL     1      -1.903   7.695  -4.745  0.00  0.00    -0.353 OA
ATOM     41  C   UNL     1      -0.864   6.539  -7.190  0.00  0.00    +0.174 C 
ATOM     42  O   UNL     1       0.322   7.131  -6.487  0.00  0.00    -0.332 OA
ATOM     43  C   UNL     1       0.643   4.728  -6.947  0.00  0.00    +0.088 C 
ATOM     44  C   UNL     1       5.304   8.214  -2.856  0.00  0.00    +0.036 C 
ATOM     45  C   UNL     1       5.102   6.521  -5.894  0.00  0.00    +0.054 C 
ENDROOT
BRANCH  37  46
ATOM     46  O   UNL     1      -2.732   8.414   1.095  0.00  0.00    -0.351 OA
ATOM     47  C   UNL     1      -2.302   7.126   1.540  0.00  0.00    +0.174 C 
ENDBRANCH  37  46
BRANCH  36  48
ATOM     48  C   UNL     1      -1.714   9.807   2.481  0.00  0.00    +0.066 C 
BRANCH  48  49
ATOM     49  C   UNL     1      -0.910  10.455   3.750  0.00  0.00    +0.173 C 
ATOM     50  O   UNL     1      -1.634  11.790   3.643  0.00  0.00    -0.221 OA
BRANCH  49  51
ATOM     51  C   UNL     1       0.313  11.059   2.829  0.00  0.00    +0.142 C 
ATOM     52  N   UNL     1       1.504  11.055   3.590  0.00  0.00    -0.129 NA
ENDBRANCH  49  51
ENDBRANCH  48  49
ENDBRANCH  36  48
TORSDOF 4
ENDMDL
