MODEL 1
REMARK VINA RESULT:      -4.9      0.000      0.000
REMARK  Name = 
REMARK  9 active torsions:
REMARK  status: ('A' for Active; 'I' for Inactive)
REMARK    1  A    between atoms: C_2  and  N_3
REMARK    2  A    between atoms: N_3  and  C_4
REMARK    3  A    between atoms: N_3  and  C_6
REMARK    4  A    between atoms: C_6  and  S_8
REMARK    5  A    between atoms: S_8  and  S_9
REMARK    6  A    between atoms: S_9  and  C_10
REMARK    7  A    between atoms: C_10  and  N_12
REMARK    8  A    between atoms: N_12  and  C_13
REMARK    9  A    between atoms: N_12  and  C_15
REMARK                            x       y       z     vdW  Elec       q    Type
REMARK                         _______ _______ _______ _____ _____    ______ ____
ROOT
ATOM      1  S   UNL     1       0.915   6.603  -4.764  0.00  0.00    -0.027 S 
ENDROOT
BRANCH   1   2
ATOM      2  C   UNL     1      -0.331   6.145  -3.557  0.00  0.00    +0.121 C 
ATOM      3  S   UNL     1       0.100   5.243  -2.252  0.00  0.00    -0.027 S 
BRANCH   2   4
ATOM      4  N   UNL     1      -1.634   5.850  -4.079  0.00  0.00    -0.297 N 
BRANCH   4   6
ATOM      5  C   UNL     1      -3.508   6.331  -2.717  0.00  0.00    +0.023 C 
ATOM      6  C   UNL     1      -2.560   5.218  -3.143  0.00  0.00    +0.092 C 
ENDBRANCH   4   6
BRANCH   4   7
ATOM      7  C   UNL     1      -2.129   6.717  -5.142  0.00  0.00    +0.092 C 
ATOM      8  C   UNL     1      -2.535   5.861  -6.325  0.00  0.00    +0.023 C 
ENDBRANCH   4   7
ENDBRANCH   2   4
ENDBRANCH   1   2
BRANCH   1   9
ATOM      9  S   UNL     1       1.162   5.119  -6.237  0.00  0.00    -0.027 S 
BRANCH   9  10
ATOM     10  C   UNL     1       1.388   5.836  -7.848  0.00  0.00    +0.121 C 
ATOM     11  S   UNL     1       2.031   7.346  -7.915  0.00  0.00    -0.027 S 
BRANCH  10  12
ATOM     12  N   UNL     1       1.787   4.943  -8.894  0.00  0.00    -0.297 N 
BRANCH  12  13
ATOM     13  C   UNL     1       1.445   5.178 -10.288  0.00  0.00    +0.092 C 
ATOM     14  C   UNL     1       0.093   4.572 -10.562  0.00  0.00    +0.023 C 
ENDBRANCH  12  13
BRANCH  12  15
ATOM     15  C   UNL     1       2.711   3.840  -8.640  0.00  0.00    +0.092 C 
ATOM     16  C   UNL     1       4.090   4.362  -9.019  0.00  0.00    +0.023 C 
ENDBRANCH  12  15
ENDBRANCH  10  12
ENDBRANCH   9  10
ENDBRANCH   1   9
TORSDOF 9
ENDMDL
MODEL 2
REMARK VINA RESULT:      -4.9      3.572      8.118
REMARK  Name = 
REMARK  9 active torsions:
REMARK  status: ('A' for Active; 'I' for Inactive)
REMARK    1  A    between atoms: C_2  and  N_3
REMARK    2  A    between atoms: N_3  and  C_4
REMARK    3  A    between atoms: N_3  and  C_6
REMARK    4  A    between atoms: C_6  and  S_8
REMARK    5  A    between atoms: S_8  and  S_9
REMARK    6  A    between atoms: S_9  and  C_10
REMARK    7  A    between atoms: C_10  and  N_12
REMARK    8  A    between atoms: N_12  and  C_13
REMARK    9  A    between atoms: N_12  and  C_15
REMARK                            x       y       z     vdW  Elec       q    Type
REMARK                         _______ _______ _______ _____ _____    ______ ____
ROOT
ATOM      1  S   UNL     1       5.113   5.228  -8.855  0.00  0.00    -0.027 S 
ENDROOT
BRANCH   1   2
ATOM      2  C   UNL     1       5.270   5.944 -10.493  0.00  0.00    +0.121 C 
ATOM      3  S   UNL     1       4.135   5.610 -11.634  0.00  0.00    -0.027 S 
BRANCH   2   4
ATOM      4  N   UNL     1       6.606   6.065 -11.001  0.00  0.00    -0.297 N 
BRANCH   4   6
ATOM      5  C   UNL     1       8.373   5.522 -12.480  0.00  0.00    +0.023 C 
ATOM      6  C   UNL     1       6.887   5.310 -12.220  0.00  0.00    +0.092 C 
ENDBRANCH   4   6
BRANCH   4   7
ATOM      7  C   UNL     1       7.306   7.314 -10.722  0.00  0.00    +0.092 C 
ATOM      8  C   UNL     1       6.526   8.460 -11.336  0.00  0.00    +0.023 C 
ENDBRANCH   4   7
ENDBRANCH   2   4
ENDBRANCH   1   2
BRANCH   1   9
ATOM      9  S   UNL     1       3.160   4.531  -8.488  0.00  0.00    -0.027 S 
BRANCH   9  10
ATOM     10  C   UNL     1       2.196   5.737  -7.606  0.00  0.00    +0.121 C 
ATOM     11  S   UNL     1       2.225   7.279  -8.169  0.00  0.00    -0.027 S 
BRANCH  10  12
ATOM     12  N   UNL     1       0.942   5.290  -7.080  0.00  0.00    -0.297 N 
BRANCH  12  13
ATOM     13  C   UNL     1      -0.308   5.457  -7.806  0.00  0.00    +0.092 C 
ATOM     14  C   UNL     1      -1.451   5.332  -6.833  0.00  0.00    +0.023 C 
ENDBRANCH  12  13
BRANCH  12  15
ATOM     15  C   UNL     1       0.873   4.483  -5.864  0.00  0.00    +0.092 C 
ATOM     16  C   UNL     1       1.805   5.160  -4.868  0.00  0.00    +0.023 C 
ENDBRANCH  12  15
ENDBRANCH  10  12
ENDBRANCH   9  10
ENDBRANCH   1   9
TORSDOF 9
ENDMDL
MODEL 3
REMARK VINA RESULT:      -4.9      1.286      2.156
REMARK  Name = 
REMARK  9 active torsions:
REMARK  status: ('A' for Active; 'I' for Inactive)
REMARK    1  A    between atoms: C_2  and  N_3
REMARK    2  A    between atoms: N_3  and  C_4
REMARK    3  A    between atoms: N_3  and  C_6
REMARK    4  A    between atoms: C_6  and  S_8
REMARK    5  A    between atoms: S_8  and  S_9
REMARK    6  A    between atoms: S_9  and  C_10
REMARK    7  A    between atoms: C_10  and  N_12
REMARK    8  A    between atoms: N_12  and  C_13
REMARK    9  A    between atoms: N_12  and  C_15
REMARK                            x       y       z     vdW  Elec       q    Type
REMARK                         _______ _______ _______ _____ _____    ______ ____
ROOT
ATOM      1  S   UNL     1       0.958   6.248  -4.916  0.00  0.00    -0.027 S 
ENDROOT
BRANCH   1   2
ATOM      2  C   UNL     1      -0.246   6.007  -3.608  0.00  0.00    +0.121 C 
ATOM      3  S   UNL     1       0.207   5.248  -2.221  0.00  0.00    -0.027 S 
BRANCH   2   4
ATOM      4  N   UNL     1      -1.586   5.721  -4.032  0.00  0.00    -0.297 N 
BRANCH   4   6
ATOM      5  C   UNL     1      -3.424   6.378  -2.694  0.00  0.00    +0.023 C 
ATOM      6  C   UNL     1      -2.482   5.219  -2.993  0.00  0.00    +0.092 C 
ENDBRANCH   4   6
BRANCH   4   7
ATOM      7  C   UNL     1      -2.105   6.506  -5.145  0.00  0.00    +0.092 C 
ATOM      8  C   UNL     1      -2.555   5.563  -6.243  0.00  0.00    +0.023 C 
ENDBRANCH   4   7
ENDBRANCH   2   4
ENDBRANCH   1   2
BRANCH   1   9
ATOM      9  S   UNL     1       1.147   4.540  -6.133  0.00  0.00    -0.027 S 
BRANCH   9  10
ATOM     10  C   UNL     1       1.910   4.934  -7.690  0.00  0.00    +0.121 C 
ATOM     11  S   UNL     1       2.763   3.743  -8.431  0.00  0.00    -0.027 S 
BRANCH  10  12
ATOM     12  N   UNL     1       1.177   5.807  -8.557  0.00  0.00    -0.297 N 
BRANCH  12  13
ATOM     13  C   UNL     1       1.754   7.027  -9.098  0.00  0.00    +0.092 C 
ATOM     14  C   UNL     1       2.486   7.746  -7.995  0.00  0.00    +0.023 C 
ENDBRANCH  12  13
BRANCH  12  15
ATOM     15  C   UNL     1      -0.131   5.428  -9.085  0.00  0.00    +0.092 C 
ATOM     16  C   UNL     1       0.069   5.238 -10.583  0.00  0.00    +0.023 C 
ENDBRANCH  12  15
ENDBRANCH  10  12
ENDBRANCH   9  10
ENDBRANCH   1   9
TORSDOF 9
ENDMDL
MODEL 4
REMARK VINA RESULT:      -4.8      0.562      6.674
REMARK  Name = 
REMARK  9 active torsions:
REMARK  status: ('A' for Active; 'I' for Inactive)
REMARK    1  A    between atoms: C_2  and  N_3
REMARK    2  A    between atoms: N_3  and  C_4
REMARK    3  A    between atoms: N_3  and  C_6
REMARK    4  A    between atoms: C_6  and  S_8
REMARK    5  A    between atoms: S_8  and  S_9
REMARK    6  A    between atoms: S_9  and  C_10
REMARK    7  A    between atoms: C_10  and  N_12
REMARK    8  A    between atoms: N_12  and  C_13
REMARK    9  A    between atoms: N_12  and  C_15
REMARK                            x       y       z     vdW  Elec       q    Type
REMARK                         _______ _______ _______ _____ _____    ______ ____
ROOT
ATOM      1  S   UNL     1       1.356   4.868  -6.333  0.00  0.00    -0.027 S 
ENDROOT
BRANCH   1   2
ATOM      2  C   UNL     1       2.291   5.717  -7.607  0.00  0.00    +0.121 C 
ATOM      3  S   UNL     1       2.101   7.338  -7.806  0.00  0.00    -0.027 S 
BRANCH   2   4
ATOM      4  N   UNL     1       2.497   4.990  -8.826  0.00  0.00    -0.297 N 
BRANCH   4   6
ATOM      5  C   UNL     1       0.719   4.709 -10.362  0.00  0.00    +0.023 C 
ATOM      6  C   UNL     1       1.915   5.589 -10.024  0.00  0.00    +0.092 C 
ENDBRANCH   4   6
BRANCH   4   7
ATOM      7  C   UNL     1       3.709   4.182  -8.913  0.00  0.00    +0.092 C 
ATOM      8  C   UNL     1       4.911   5.077  -8.691  0.00  0.00    +0.023 C 
ENDBRANCH   4   7
ENDBRANCH   2   4
ENDBRANCH   1   2
BRANCH   1   9
ATOM      9  S   UNL     1       1.016   6.098  -4.658  0.00  0.00    -0.027 S 
BRANCH   9  10
ATOM     10  C   UNL     1      -0.253   5.428  -3.609  0.00  0.00    +0.121 C 
ATOM     11  S   UNL     1       0.023   5.448  -1.990  0.00  0.00    -0.027 S 
BRANCH  10  12
ATOM     12  N   UNL     1      -1.606   5.666  -4.012  0.00  0.00    -0.297 N 
BRANCH  12  13
ATOM     13  C   UNL     1      -2.742   5.193  -3.235  0.00  0.00    +0.092 C 
ATOM     14  C   UNL     1      -3.486   6.386  -2.693  0.00  0.00    +0.023 C 
ENDBRANCH  12  13
BRANCH  12  15
ATOM     15  C   UNL     1      -1.921   6.548  -5.133  0.00  0.00    +0.092 C 
ATOM     16  C   UNL     1      -2.431   5.638  -6.242  0.00  0.00    +0.023 C 
ENDBRANCH  12  15
ENDBRANCH  10  12
ENDBRANCH   9  10
ENDBRANCH   1   9
TORSDOF 9
ENDMDL
MODEL 5
REMARK VINA RESULT:      -4.8      1.937      2.692
REMARK  Name = 
REMARK  9 active torsions:
REMARK  status: ('A' for Active; 'I' for Inactive)
REMARK    1  A    between atoms: C_2  and  N_3
REMARK    2  A    between atoms: N_3  and  C_4
REMARK    3  A    between atoms: N_3  and  C_6
REMARK    4  A    between atoms: C_6  and  S_8
REMARK    5  A    between atoms: S_8  and  S_9
REMARK    6  A    between atoms: S_9  and  C_10
REMARK    7  A    between atoms: C_10  and  N_12
REMARK    8  A    between atoms: N_12  and  C_13
REMARK    9  A    between atoms: N_12  and  C_15
REMARK                            x       y       z     vdW  Elec       q    Type
REMARK                         _______ _______ _______ _____ _____    ______ ____
ROOT
ATOM      1  S   UNL     1       0.084   4.918  -6.312  0.00  0.00    -0.027 S 
ENDROOT
BRANCH   1   2
ATOM      2  C   UNL     1      -0.229   5.754  -4.755  0.00  0.00    +0.121 C 
ATOM      3  S   UNL     1       0.791   5.514  -3.489  0.00  0.00    -0.027 S 
BRANCH   2   4
ATOM      4  N   UNL     1      -1.608   5.903  -4.388  0.00  0.00    -0.297 N 
BRANCH   4   6
ATOM      5  C   UNL     1      -3.452   5.692  -2.919  0.00  0.00    +0.023 C 
ATOM      6  C   UNL     1      -1.949   5.472  -3.035  0.00  0.00    +0.092 C 
ENDBRANCH   4   6
BRANCH   4   7
ATOM      7  C   UNL     1      -2.348   6.981  -5.033  0.00  0.00    +0.092 C 
ATOM      8  C   UNL     1      -1.770   8.309  -4.586  0.00  0.00    +0.023 C 
ENDBRANCH   4   7
ENDBRANCH   2   4
ENDBRANCH   1   2
BRANCH   1   9
ATOM      9  S   UNL     1       2.030   4.119  -6.395  0.00  0.00    -0.027 S 
BRANCH   9  10
ATOM     10  C   UNL     1       3.246   5.395  -6.631  0.00  0.00    +0.121 C 
ATOM     11  S   UNL     1       4.403   5.552  -5.477  0.00  0.00    -0.027 S 
BRANCH  10  12
ATOM     12  N   UNL     1       3.674   5.627  -7.977  0.00  0.00    -0.297 N 
BRANCH  12  13
ATOM     13  C   UNL     1       4.725   4.840  -8.603  0.00  0.00    +0.092 C 
ATOM     14  C   UNL     1       5.609   5.764  -9.401  0.00  0.00    +0.023 C 
ENDBRANCH  12  13
BRANCH  12  15
ATOM     15  C   UNL     1       2.958   6.550  -8.854  0.00  0.00    +0.092 C 
ATOM     16  C   UNL     1       2.374   7.618  -7.938  0.00  0.00    +0.023 C 
ENDBRANCH  12  15
ENDBRANCH  10  12
ENDBRANCH   9  10
ENDBRANCH   1   9
TORSDOF 9
ENDMDL
MODEL 6
REMARK VINA RESULT:      -4.8      3.804      5.741
REMARK  Name = 
REMARK  9 active torsions:
REMARK  status: ('A' for Active; 'I' for Inactive)
REMARK    1  A    between atoms: C_2  and  N_3
REMARK    2  A    between atoms: N_3  and  C_4
REMARK    3  A    between atoms: N_3  and  C_6
REMARK    4  A    between atoms: C_6  and  S_8
REMARK    5  A    between atoms: S_8  and  S_9
REMARK    6  A    between atoms: S_9  and  C_10
REMARK    7  A    between atoms: C_10  and  N_12
REMARK    8  A    between atoms: N_12  and  C_13
REMARK    9  A    between atoms: N_12  and  C_15
REMARK                            x       y       z     vdW  Elec       q    Type
REMARK                         _______ _______ _______ _____ _____    ______ ____
ROOT
ATOM      1  S   UNL     1       3.348   4.354  -8.818  0.00  0.00    -0.027 S 
ENDROOT
BRANCH   1   2
ATOM      2  C   UNL     1       2.009   5.405  -8.249  0.00  0.00    +0.121 C 
ATOM      3  S   UNL     1       1.439   6.593  -9.232  0.00  0.00    -0.027 S 
BRANCH   2   4
ATOM      4  N   UNL     1       2.024   5.742  -6.855  0.00  0.00    -0.297 N 
BRANCH   4   6
ATOM      5  C   UNL     1       0.812   4.941  -4.986  0.00  0.00    +0.023 C 
ATOM      6  C   UNL     1       1.958   4.611  -5.933  0.00  0.00    +0.092 C 
ENDBRANCH   4   6
BRANCH   4   7
ATOM      7  C   UNL     1       2.723   6.966  -6.481  0.00  0.00    +0.092 C 
ATOM      8  C   UNL     1       3.988   6.598  -5.733  0.00  0.00    +0.023 C 
ENDBRANCH   4   7
ENDBRANCH   2   4
ENDBRANCH   1   2
BRANCH   1   9
ATOM      9  S   UNL     1       5.068   5.469  -9.302  0.00  0.00    -0.027 S 
BRANCH   9  10
ATOM     10  C   UNL     1       5.389   5.440 -11.050  0.00  0.00    +0.121 C 
ATOM     11  S   UNL     1       4.116   5.705 -12.053  0.00  0.00    -0.027 S 
BRANCH  10  12
ATOM     12  N   UNL     1       6.642   5.986 -11.477  0.00  0.00    -0.297 N 
BRANCH  12  13
ATOM     13  C   UNL     1       7.235   7.155 -10.846  0.00  0.00    +0.092 C 
ATOM     14  C   UNL     1       6.521   8.386 -11.342  0.00  0.00    +0.023 C 
ENDBRANCH  12  13
BRANCH  12  15
ATOM     15  C   UNL     1       7.478   5.295 -12.455  0.00  0.00    +0.092 C 
ATOM     16  C   UNL     1       8.906   5.735 -12.161  0.00  0.00    +0.023 C 
ENDBRANCH  12  15
ENDBRANCH  10  12
ENDBRANCH   9  10
ENDBRANCH   1   9
TORSDOF 9
ENDMDL
MODEL 7
REMARK VINA RESULT:      -4.8      1.176      6.483
REMARK  Name = 
REMARK  9 active torsions:
REMARK  status: ('A' for Active; 'I' for Inactive)
REMARK    1  A    between atoms: C_2  and  N_3
REMARK    2  A    between atoms: N_3  and  C_4
REMARK    3  A    between atoms: N_3  and  C_6
REMARK    4  A    between atoms: C_6  and  S_8
REMARK    5  A    between atoms: S_8  and  S_9
REMARK    6  A    between atoms: S_9  and  C_10
REMARK    7  A    between atoms: C_10  and  N_12
REMARK    8  A    between atoms: N_12  and  C_13
REMARK    9  A    between atoms: N_12  and  C_15
REMARK                            x       y       z     vdW  Elec       q    Type
REMARK                         _______ _______ _______ _____ _____    ______ ____
ROOT
ATOM      1  S   UNL     1       1.398   4.435  -5.895  0.00  0.00    -0.027 S 
ENDROOT
BRANCH   1   2
ATOM      2  C   UNL     1       2.889   4.813  -6.821  0.00  0.00    +0.121 C 
ATOM      3  S   UNL     1       4.040   5.772  -6.145  0.00  0.00    -0.027 S 
BRANCH   2   4
ATOM      4  N   UNL     1       2.722   4.990  -8.234  0.00  0.00    -0.297 N 
BRANCH   4   6
ATOM      5  C   UNL     1       0.795   5.886  -9.276  0.00  0.00    +0.023 C 
ATOM      6  C   UNL     1       2.130   6.260  -8.645  0.00  0.00    +0.092 C 
ENDBRANCH   4   6
BRANCH   4   7
ATOM      7  C   UNL     1       3.671   4.298  -9.100  0.00  0.00    +0.092 C 
ATOM      8  C   UNL     1       4.423   5.325  -9.922  0.00  0.00    +0.023 C 
ENDBRANCH   4   7
ENDBRANCH   2   4
ENDBRANCH   1   2
BRANCH   1   9
ATOM      9  S   UNL     1       0.983   5.904  -4.445  0.00  0.00    -0.027 S 
BRANCH   9  10
ATOM     10  C   UNL     1      -0.388   5.431  -3.417  0.00  0.00    +0.121 C 
ATOM     11  S   UNL     1      -0.167   5.498  -1.791  0.00  0.00    -0.027 S 
BRANCH  10  12
ATOM     12  N   UNL     1      -1.692   5.798  -3.883  0.00  0.00    -0.297 N 
BRANCH  12  13
ATOM     13  C   UNL     1      -1.890   6.603  -5.079  0.00  0.00    +0.092 C 
ATOM     14  C   UNL     1      -2.387   5.709  -6.185  0.00  0.00    +0.023 C 
ENDBRANCH  12  13
BRANCH  12  15
ATOM     15  C   UNL     1      -2.899   5.237  -3.282  0.00  0.00    +0.092 C 
ATOM     16  C   UNL     1      -3.671   6.425  -2.722  0.00  0.00    +0.023 C 
ENDBRANCH  12  15
ENDBRANCH  10  12
ENDBRANCH   9  10
ENDBRANCH   1   9
TORSDOF 9
ENDMDL
MODEL 8
REMARK VINA RESULT:      -4.7      3.908      6.046
REMARK  Name = 
REMARK  9 active torsions:
REMARK  status: ('A' for Active; 'I' for Inactive)
REMARK    1  A    between atoms: C_2  and  N_3
REMARK    2  A    between atoms: N_3  and  C_4
REMARK    3  A    between atoms: N_3  and  C_6
REMARK    4  A    between atoms: C_6  and  S_8
REMARK    5  A    between atoms: S_8  and  S_9
REMARK    6  A    between atoms: S_9  and  C_10
REMARK    7  A    between atoms: C_10  and  N_12
REMARK    8  A    between atoms: N_12  and  C_13
REMARK    9  A    between atoms: N_12  and  C_15
REMARK                            x       y       z     vdW  Elec       q    Type
REMARK                         _______ _______ _______ _____ _____    ______ ____
ROOT
ATOM      1  S   UNL     1       3.558   4.838  -9.142  0.00  0.00    -0.027 S 
ENDROOT
BRANCH   1   2
ATOM      2  C   UNL     1       2.715   5.725  -7.829  0.00  0.00    +0.121 C 
ATOM      3  S   UNL     1       2.246   7.280  -8.076  0.00  0.00    -0.027 S 
BRANCH   2   4
ATOM      4  N   UNL     1       3.158   5.441  -6.495  0.00  0.00    -0.297 N 
BRANCH   4   6
ATOM      5  C   UNL     1       4.331   6.749  -4.908  0.00  0.00    +0.023 C 
ATOM      6  C   UNL     1       4.503   5.907  -6.166  0.00  0.00    +0.092 C 
ENDBRANCH   4   6
BRANCH   4   7
ATOM      7  C   UNL     1       2.129   5.354  -5.465  0.00  0.00    +0.092 C 
ATOM      8  C   UNL     1       1.067   4.372  -5.915  0.00  0.00    +0.023 C 
ENDBRANCH   4   7
ENDBRANCH   2   4
ENDBRANCH   1   2
BRANCH   1   9
ATOM      9  S   UNL     1       3.949   6.076 -10.800  0.00  0.00    -0.027 S 
BRANCH   9  10
ATOM     10  C   UNL     1       5.183   5.365 -11.863  0.00  0.00    +0.121 C 
ATOM     11  S   UNL     1       4.886   5.385 -13.478  0.00  0.00    -0.027 S 
BRANCH  10  12
ATOM     12  N   UNL     1       6.548   5.567 -11.480  0.00  0.00    -0.297 N 
BRANCH  12  13
ATOM     13  C   UNL     1       7.655   4.962 -12.205  0.00  0.00    +0.092 C 
ATOM     14  C   UNL     1       8.622   6.047 -12.602  0.00  0.00    +0.023 C 
ENDBRANCH  12  13
BRANCH  12  15
ATOM     15  C   UNL     1       6.912   6.532 -10.446  0.00  0.00    +0.092 C 
ATOM     16  C   UNL     1       7.346   5.704  -9.244  0.00  0.00    +0.023 C 
ENDBRANCH  12  15
ENDBRANCH  10  12
ENDBRANCH   9  10
ENDBRANCH   1   9
TORSDOF 9
ENDMDL
MODEL 9
REMARK VINA RESULT:      -4.7      2.229      3.160
REMARK  Name = 
REMARK  9 active torsions:
REMARK  status: ('A' for Active; 'I' for Inactive)
REMARK    1  A    between atoms: C_2  and  N_3
REMARK    2  A    between atoms: N_3  and  C_4
REMARK    3  A    between atoms: N_3  and  C_6
REMARK    4  A    between atoms: C_6  and  S_8
REMARK    5  A    between atoms: S_8  and  S_9
REMARK    6  A    between atoms: S_9  and  C_10
REMARK    7  A    between atoms: C_10  and  N_12
REMARK    8  A    between atoms: N_12  and  C_13
REMARK    9  A    between atoms: N_12  and  C_15
REMARK                            x       y       z     vdW  Elec       q    Type
REMARK                         _______ _______ _______ _____ _____    ______ ____
ROOT
ATOM      1  S   UNL     1       2.605   6.713  -5.981  0.00  0.00    -0.027 S 
ENDROOT
BRANCH   1   2
ATOM      2  C   UNL     1       1.579   5.270  -5.687  0.00  0.00    +0.121 C 
ATOM      3  S   UNL     1       1.968   3.842  -6.402  0.00  0.00    -0.027 S 
BRANCH   2   4
ATOM      4  N   UNL     1       0.170   5.513  -5.572  0.00  0.00    -0.297 N 
BRANCH   4   6
ATOM      5  C   UNL     1      -0.170   5.920  -3.266  0.00  0.00    +0.023 C 
ATOM      6  C   UNL     1      -0.212   6.572  -4.641  0.00  0.00    +0.092 C 
ENDBRANCH   4   6
BRANCH   4   7
ATOM      7  C   UNL     1      -0.645   5.227  -6.748  0.00  0.00    +0.092 C 
ATOM      8  C   UNL     1      -2.078   5.624  -6.458  0.00  0.00    +0.023 C 
ENDBRANCH   4   7
ENDBRANCH   2   4
ENDBRANCH   1   2
BRANCH   1   9
ATOM      9  S   UNL     1       2.243   7.560  -7.875  0.00  0.00    -0.027 S 
BRANCH   9  10
ATOM     10  C   UNL     1       2.218   6.317  -9.146  0.00  0.00    +0.121 C 
ATOM     11  S   UNL     1       0.961   6.349 -10.203  0.00  0.00    -0.027 S 
BRANCH  10  12
ATOM     12  N   UNL     1       3.486   5.944  -9.698  0.00  0.00    -0.297 N 
BRANCH  12  13
ATOM     13  C   UNL     1       4.200   4.754  -9.264  0.00  0.00    +0.092 C 
ATOM     14  C   UNL     1       5.277   5.165  -8.294  0.00  0.00    +0.023 C 
ENDBRANCH  12  13
BRANCH  12  15
ATOM     15  C   UNL     1       4.047   6.643 -10.852  0.00  0.00    +0.092 C 
ATOM     16  C   UNL     1       4.344   5.562 -11.883  0.00  0.00    +0.023 C 
ENDBRANCH  12  15
ENDBRANCH  10  12
ENDBRANCH   9  10
ENDBRANCH   1   9
TORSDOF 9
ENDMDL
