MODEL 1
REMARK VINA RESULT:      -5.8      0.000      0.000
REMARK  Name = 
REMARK  3 active torsions:
REMARK  status: ('A' for Active; 'I' for Inactive)
REMARK    1  A    between atoms: N_2  and  C_3
REMARK    2  A    between atoms: C_3  and  C_4
REMARK    3  A    between atoms: C_4  and  C_5
REMARK                            x       y       z     vdW  Elec       q    Type
REMARK                         _______ _______ _______ _____ _____    ______ ____
ROOT
ATOM      1  C   UNL     1       7.667   6.502 -10.709  0.00  0.00    -0.021 A 
ATOM      2  C   UNL     1       7.187   5.758  -9.637  0.00  0.00    -0.004 A 
ATOM      3  C   UNL     1       5.800   5.713  -9.500  0.00  0.00    -0.000 A 
ATOM      4  C   UNL     1       4.976   6.615 -10.167  0.00  0.00    -0.000 A 
ATOM      5  C   UNL     1       5.537   7.562 -11.018  0.00  0.00    -0.000 A 
ATOM      6  C   UNL     1       6.927   7.646 -10.977  0.00  0.00    -0.004 A 
ENDROOT
BRANCH   1   7
ATOM      7  C   UNL     1       8.751   6.007 -11.612  0.00  0.00    +0.047 C 
BRANCH   7   8
ATOM      8  C   UNL     1       8.149   5.936 -12.999  0.00  0.00    +0.116 C 
BRANCH   8  10
ATOM      9  N   UNL     1       6.123   5.052 -13.613  0.00  0.00    -0.020 NA
ATOM     10  N   UNL     1       7.404   4.702 -13.162  0.00  0.00    -0.112 NA
ENDBRANCH   8  10
ENDBRANCH   7   8
ENDBRANCH   1   7
TORSDOF 3
ENDMDL
MODEL 2
REMARK VINA RESULT:      -5.4     10.336     11.843
REMARK  Name = 
REMARK  3 active torsions:
REMARK  status: ('A' for Active; 'I' for Inactive)
REMARK    1  A    between atoms: N_2  and  C_3
REMARK    2  A    between atoms: C_3  and  C_4
REMARK    3  A    between atoms: C_4  and  C_5
REMARK                            x       y       z     vdW  Elec       q    Type
REMARK                         _______ _______ _______ _____ _____    ______ ____
ROOT
ATOM      1  C   UNL     1      -1.902   7.115  -4.492  0.00  0.00    -0.021 A 
ATOM      2  C   UNL     1      -2.777   6.933  -5.557  0.00  0.00    -0.004 A 
ATOM      3  C   UNL     1      -2.439   5.922  -6.456  0.00  0.00    -0.000 A 
ATOM      4  C   UNL     1      -1.160   5.373  -6.482  0.00  0.00    -0.000 A 
ATOM      5  C   UNL     1      -0.203   5.812  -5.574  0.00  0.00    -0.000 A 
ATOM      6  C   UNL     1      -0.566   6.927  -4.822  0.00  0.00    -0.004 A 
ENDROOT
BRANCH   1   7
ATOM      7  C   UNL     1      -2.372   7.294  -3.084  0.00  0.00    +0.047 C 
BRANCH   7   8
ATOM      8  C   UNL     1      -3.442   6.247  -2.857  0.00  0.00    +0.116 C 
BRANCH   8  10
ATOM      9  N   UNL     1      -1.994   5.103  -1.495  0.00  0.00    -0.020 NA
ATOM     10  N   UNL     1      -2.835   4.953  -2.607  0.00  0.00    -0.112 NA
ENDBRANCH   8  10
ENDBRANCH   7   8
ENDBRANCH   1   7
TORSDOF 3
ENDMDL
MODEL 3
REMARK VINA RESULT:      -5.0      1.036      1.467
REMARK  Name = 
REMARK  3 active torsions:
REMARK  status: ('A' for Active; 'I' for Inactive)
REMARK    1  A    between atoms: N_2  and  C_3
REMARK    2  A    between atoms: C_3  and  C_4
REMARK    3  A    between atoms: C_4  and  C_5
REMARK                            x       y       z     vdW  Elec       q    Type
REMARK                         _______ _______ _______ _____ _____    ______ ____
ROOT
ATOM      1  C   UNL     1       6.427   6.046  -9.920  0.00  0.00    -0.021 A 
ATOM      2  C   UNL     1       5.698   5.337  -8.972  0.00  0.00    -0.004 A 
ATOM      3  C   UNL     1       4.417   4.945  -9.358  0.00  0.00    -0.000 A 
ATOM      4  C   UNL     1       3.788   5.510 -10.463  0.00  0.00    -0.000 A 
ATOM      5  C   UNL     1       4.458   6.461 -11.226  0.00  0.00    -0.000 A 
ATOM      6  C   UNL     1       5.660   6.913 -10.687  0.00  0.00    -0.004 A 
ENDROOT
BRANCH   1   7
ATOM      7  C   UNL     1       7.862   5.749 -10.222  0.00  0.00    +0.047 C 
BRANCH   7   8
ATOM      8  C   UNL     1       8.027   5.926 -11.716  0.00  0.00    +0.116 C 
BRANCH   8  10
ATOM      9  N   UNL     1       7.243   4.987 -13.656  0.00  0.00    -0.020 NA
ATOM     10  N   UNL     1       7.785   4.671 -12.401  0.00  0.00    -0.112 NA
ENDBRANCH   8  10
ENDBRANCH   7   8
ENDBRANCH   1   7
TORSDOF 3
ENDMDL
MODEL 4
REMARK VINA RESULT:      -5.0     10.069     11.104
REMARK  Name = 
REMARK  3 active torsions:
REMARK  status: ('A' for Active; 'I' for Inactive)
REMARK    1  A    between atoms: N_2  and  C_3
REMARK    2  A    between atoms: C_3  and  C_4
REMARK    3  A    between atoms: C_4  and  C_5
REMARK                            x       y       z     vdW  Elec       q    Type
REMARK                         _______ _______ _______ _____ _____    ______ ____
ROOT
ATOM      1  C   UNL     1      -0.358   6.246  -4.839  0.00  0.00    -0.021 A 
ATOM      2  C   UNL     1      -1.319   7.245  -4.733  0.00  0.00    -0.004 A 
ATOM      3  C   UNL     1      -2.517   7.011  -5.406  0.00  0.00    -0.000 A 
ATOM      4  C   UNL     1      -2.619   6.026  -6.384  0.00  0.00    -0.000 A 
ATOM      5  C   UNL     1      -1.516   5.230  -6.679  0.00  0.00    -0.000 A 
ATOM      6  C   UNL     1      -0.322   5.630  -6.083  0.00  0.00    -0.004 A 
ENDROOT
BRANCH   1   7
ATOM      7  C   UNL     1       0.419   5.746  -3.663  0.00  0.00    +0.047 C 
BRANCH   7   8
ATOM      8  C   UNL     1      -0.369   6.143  -2.433  0.00  0.00    +0.116 C 
BRANCH   8  10
ATOM      9  N   UNL     1      -2.325   5.008  -2.045  0.00  0.00    -0.020 NA
ATOM     10  N   UNL     1      -0.943   4.969  -1.803  0.00  0.00    -0.112 NA
ENDBRANCH   8  10
ENDBRANCH   7   8
ENDBRANCH   1   7
TORSDOF 3
ENDMDL
MODEL 5
REMARK VINA RESULT:      -5.0      7.370      8.880
REMARK  Name = 
REMARK  3 active torsions:
REMARK  status: ('A' for Active; 'I' for Inactive)
REMARK    1  A    between atoms: N_2  and  C_3
REMARK    2  A    between atoms: C_3  and  C_4
REMARK    3  A    between atoms: C_4  and  C_5
REMARK                            x       y       z     vdW  Elec       q    Type
REMARK                         _______ _______ _______ _____ _____    ______ ____
ROOT
ATOM      1  C   UNL     1      -0.212   6.007  -6.240  0.00  0.00    -0.021 A 
ATOM      2  C   UNL     1      -1.362   5.304  -6.580  0.00  0.00    -0.004 A 
ATOM      3  C   UNL     1      -2.570   5.931  -6.277  0.00  0.00    -0.000 A 
ATOM      4  C   UNL     1      -2.627   7.007  -5.396  0.00  0.00    -0.000 A 
ATOM      5  C   UNL     1      -1.455   7.497  -4.830  0.00  0.00    -0.000 A 
ATOM      6  C   UNL     1      -0.319   6.723  -5.055  0.00  0.00    -0.004 A 
ENDROOT
BRANCH   1   7
ATOM      7  C   UNL     1       0.954   6.142  -7.167  0.00  0.00    +0.047 C 
BRANCH   7   8
ATOM      8  C   UNL     1       2.149   6.478  -6.300  0.00  0.00    +0.116 C 
BRANCH   8  10
ATOM      9  N   UNL     1       2.142   8.170  -7.849  0.00  0.00    -0.020 NA
ATOM     10  N   UNL     1       2.967   7.489  -6.941  0.00  0.00    -0.112 NA
ENDBRANCH   8  10
ENDBRANCH   7   8
ENDBRANCH   1   7
TORSDOF 3
ENDMDL
MODEL 6
REMARK VINA RESULT:      -4.9      3.503      4.644
REMARK  Name = 
REMARK  3 active torsions:
REMARK  status: ('A' for Active; 'I' for Inactive)
REMARK    1  A    between atoms: N_2  and  C_3
REMARK    2  A    between atoms: C_3  and  C_4
REMARK    3  A    between atoms: C_4  and  C_5
REMARK                            x       y       z     vdW  Elec       q    Type
REMARK                         _______ _______ _______ _____ _____    ______ ____
ROOT
ATOM      1  C   UNL     1       4.970   6.184  -9.623  0.00  0.00    -0.021 A 
ATOM      2  C   UNL     1       6.139   5.516  -9.278  0.00  0.00    -0.004 A 
ATOM      3  C   UNL     1       7.329   6.140  -9.649  0.00  0.00    -0.000 A 
ATOM      4  C   UNL     1       7.346   7.168 -10.589  0.00  0.00    -0.000 A 
ATOM      5  C   UNL     1       6.152   7.610 -11.148  0.00  0.00    -0.000 A 
ATOM      6  C   UNL     1       5.034   6.835 -10.848  0.00  0.00    -0.004 A 
ENDROOT
BRANCH   1   7
ATOM      7  C   UNL     1       3.828   6.355  -8.673  0.00  0.00    +0.047 C 
BRANCH   7   8
ATOM      8  C   UNL     1       2.586   6.507  -9.525  0.00  0.00    +0.116 C 
BRANCH   8  10
ATOM      9  N   UNL     1       2.262   8.097  -7.904  0.00  0.00    -0.020 NA
ATOM     10  N   UNL     1       1.581   7.278  -8.817  0.00  0.00    -0.112 NA
ENDBRANCH   8  10
ENDBRANCH   7   8
ENDBRANCH   1   7
TORSDOF 3
ENDMDL
MODEL 7
REMARK VINA RESULT:      -4.8      1.361      2.659
REMARK  Name = 
REMARK  3 active torsions:
REMARK  status: ('A' for Active; 'I' for Inactive)
REMARK    1  A    between atoms: N_2  and  C_3
REMARK    2  A    between atoms: C_3  and  C_4
REMARK    3  A    between atoms: C_4  and  C_5
REMARK                            x       y       z     vdW  Elec       q    Type
REMARK                         _______ _______ _______ _____ _____    ______ ____
ROOT
ATOM      1  C   UNL     1       5.931   5.641  -9.495  0.00  0.00    -0.021 A 
ATOM      2  C   UNL     1       5.028   6.142 -10.425  0.00  0.00    -0.004 A 
ATOM      3  C   UNL     1       3.870   6.714  -9.903  0.00  0.00    -0.000 A 
ATOM      4  C   UNL     1       3.485   6.495  -8.583  0.00  0.00    -0.000 A 
ATOM      5  C   UNL     1       4.285   5.718  -7.752  0.00  0.00    -0.000 A 
ATOM      6  C   UNL     1       5.332   5.055  -8.388  0.00  0.00    -0.004 A 
ENDROOT
BRANCH   1   7
ATOM      7  C   UNL     1       7.403   5.894  -9.582  0.00  0.00    +0.047 C 
BRANCH   7   8
ATOM      8  C   UNL     1       7.659   6.439 -10.971  0.00  0.00    +0.116 C 
BRANCH   8  10
ATOM      9  N   UNL     1       7.758   4.731 -12.498  0.00  0.00    -0.020 NA
ATOM     10  N   UNL     1       8.556   5.562 -11.698  0.00  0.00    -0.112 NA
ENDBRANCH   8  10
ENDBRANCH   7   8
ENDBRANCH   1   7
TORSDOF 3
ENDMDL
MODEL 8
REMARK VINA RESULT:      -4.6      9.090     10.721
REMARK  Name = 
REMARK  3 active torsions:
REMARK  status: ('A' for Active; 'I' for Inactive)
REMARK    1  A    between atoms: N_2  and  C_3
REMARK    2  A    between atoms: C_3  and  C_4
REMARK    3  A    between atoms: C_4  and  C_5
REMARK                            x       y       z     vdW  Elec       q    Type
REMARK                         _______ _______ _______ _____ _____    ______ ____
ROOT
ATOM      1  C   UNL     1      -2.235   6.147  -5.241  0.00  0.00    -0.021 A 
ATOM      2  C   UNL     1      -2.248   7.506  -4.950  0.00  0.00    -0.004 A 
ATOM      3  C   UNL     1      -2.160   7.841  -3.600  0.00  0.00    -0.000 A 
ATOM      4  C   UNL     1      -2.390   6.897  -2.602  0.00  0.00    -0.000 A 
ATOM      5  C   UNL     1      -2.679   5.582  -2.952  0.00  0.00    -0.000 A 
ATOM      6  C   UNL     1      -2.906   5.365  -4.309  0.00  0.00    -0.004 A 
ENDROOT
BRANCH   1   7
ATOM      7  C   UNL     1      -1.403   5.564  -6.339  0.00  0.00    +0.047 C 
BRANCH   7   8
ATOM      8  C   UNL     1      -0.047   5.268  -5.734  0.00  0.00    +0.116 C 
BRANCH   8  10
ATOM      9  N   UNL     1       1.709   3.879  -6.232  0.00  0.00    -0.020 NA
ATOM     10  N   UNL     1       0.893   4.887  -6.770  0.00  0.00    -0.112 NA
ENDBRANCH   8  10
ENDBRANCH   7   8
ENDBRANCH   1   7
TORSDOF 3
ENDMDL
MODEL 9
REMARK VINA RESULT:      -4.5      9.834     11.002
REMARK  Name = 
REMARK  3 active torsions:
REMARK  status: ('A' for Active; 'I' for Inactive)
REMARK    1  A    between atoms: N_2  and  C_3
REMARK    2  A    between atoms: C_3  and  C_4
REMARK    3  A    between atoms: C_4  and  C_5
REMARK                            x       y       z     vdW  Elec       q    Type
REMARK                         _______ _______ _______ _____ _____    ______ ____
ROOT
ATOM      1  C   UNL     1      -1.205   6.342  -5.506  0.00  0.00    -0.021 A 
ATOM      2  C   UNL     1      -0.760   5.429  -6.456  0.00  0.00    -0.004 A 
ATOM      3  C   UNL     1       0.407   4.738  -6.136  0.00  0.00    -0.000 A 
ATOM      4  C   UNL     1       1.248   5.168  -5.114  0.00  0.00    -0.000 A 
ATOM      5  C   UNL     1       0.907   6.292  -4.368  0.00  0.00    -0.000 A 
ATOM      6  C   UNL     1      -0.183   7.014  -4.850  0.00  0.00    -0.004 A 
ENDROOT
BRANCH   1   7
ATOM      7  C   UNL     1      -2.638   6.437  -5.088  0.00  0.00    +0.047 C 
BRANCH   7   8
ATOM      8  C   UNL     1      -2.941   5.170  -4.316  0.00  0.00    +0.116 C 
BRANCH   8  10
ATOM      9  N   UNL     1      -2.269   4.914  -2.138  0.00  0.00    -0.020 NA
ATOM     10  N   UNL     1      -3.268   5.486  -2.939  0.00  0.00    -0.112 NA
ENDBRANCH   8  10
ENDBRANCH   7   8
ENDBRANCH   1   7
TORSDOF 3
ENDMDL
