MODEL 1
REMARK VINA RESULT:      -6.8      0.000      0.000
REMARK  Name = 
REMARK  5 active torsions:
REMARK  status: ('A' for Active; 'I' for Inactive)
REMARK    1  A    between atoms: N_2  and  C_4
REMARK    2  A    between atoms: C_4  and  C_5
REMARK    3  A    between atoms: C_5  and  C_6
REMARK    4  A    between atoms: C_6  and  C_7
REMARK    5  A    between atoms: C_6  and  C_14
REMARK                            x       y       z     vdW  Elec       q    Type
REMARK                         _______ _______ _______ _____ _____    ______ ____
ROOT
ATOM      1  C   UNL     1       1.102   5.390  -8.124  0.00  0.00    +0.064 C 
ENDROOT
BRANCH   1   2
ATOM      2  C   UNL     1      -0.048   5.804  -7.048  0.00  0.00    -0.017 A 
ATOM      3  C   UNL     1      -1.285   5.268  -7.279  0.00  0.00    -0.003 A 
ATOM      4  C   UNL     1      -2.211   5.461  -6.257  0.00  0.00    +0.006 A 
ATOM      5  C   UNL     1      -1.812   5.956  -5.020  0.00  0.00    +0.035 A 
ATOM      6 BR   UNL     1      -2.731   5.546  -3.403  0.00  0.00    -0.049 Br
ATOM      7  C   UNL     1      -0.691   6.777  -5.048  0.00  0.00    +0.006 A 
ATOM      8  C   UNL     1       0.301   6.572  -6.003  0.00  0.00    -0.003 A 
ENDBRANCH   1   2
BRANCH   1   9
ATOM      9  C   UNL     1       0.117   5.706  -9.396  0.00  0.00    +0.063 A 
ATOM     10  N   UNL     1       0.358   6.928  -9.925  0.00  0.00    -0.248 NA
ATOM     11  C   UNL     1       0.163   7.128 -11.241  0.00  0.00    +0.098 A 
ATOM     12  C   UNL     1       0.531   6.116 -12.119  0.00  0.00    +0.021 A 
ATOM     13  C   UNL     1       0.375   4.832 -11.658  0.00  0.00    +0.003 A 
ATOM     14  C   UNL     1       0.222   4.649 -10.293  0.00  0.00    +0.015 A 
ENDBRANCH   1   9
BRANCH   1  15
ATOM     15  C   UNL     1       1.747   6.931  -8.156  0.00  0.00    +0.028 C 
BRANCH  15  16
ATOM     16  C   UNL     1       3.230   6.728  -8.107  0.00  0.00    +0.073 C 
BRANCH  16  18
ATOM     17  C   UNL     1       3.993   6.577 -10.196  0.00  0.00    +0.090 C 
ATOM     18  N   UNL     1       3.720   5.829  -9.141  0.00  0.00    -0.270 NA
ATOM     19  C   UNL     1       4.986   5.224  -8.742  0.00  0.00    +0.090 C 
ENDBRANCH  16  18
ENDBRANCH  15  16
ENDBRANCH   1  15
TORSDOF 5
ENDMDL
MODEL 2
REMARK VINA RESULT:      -6.7      3.947      6.947
REMARK  Name = 
REMARK  5 active torsions:
REMARK  status: ('A' for Active; 'I' for Inactive)
REMARK    1  A    between atoms: N_2  and  C_4
REMARK    2  A    between atoms: C_4  and  C_5
REMARK    3  A    between atoms: C_5  and  C_6
REMARK    4  A    between atoms: C_6  and  C_7
REMARK    5  A    between atoms: C_6  and  C_14
REMARK                            x       y       z     vdW  Elec       q    Type
REMARK                         _______ _______ _______ _____ _____    ______ ____
ROOT
ATOM      1  C   UNL     1       3.180   5.274  -6.833  0.00  0.00    +0.064 C 
ENDROOT
BRANCH   1   2
ATOM      2  C   UNL     1       3.985   5.599  -8.211  0.00  0.00    -0.017 A 
ATOM      3  C   UNL     1       3.288   6.321  -9.140  0.00  0.00    -0.003 A 
ATOM      4  C   UNL     1       4.037   6.763 -10.227  0.00  0.00    +0.006 A 
ATOM      5  C   UNL     1       5.425   6.665 -10.221  0.00  0.00    +0.035 A 
ATOM      6 BR   UNL     1       6.545   7.861 -11.192  0.00  0.00    -0.049 Br
ATOM      7  C   UNL     1       5.939   5.625  -9.455  0.00  0.00    +0.006 A 
ATOM      8  C   UNL     1       5.264   5.200  -8.314  0.00  0.00    -0.003 A 
ENDBRANCH   1   2
BRANCH   1   9
ATOM      9  C   UNL     1       4.383   5.896  -5.909  0.00  0.00    +0.063 A 
ATOM     10  N   UNL     1       4.167   7.200  -5.615  0.00  0.00    -0.248 NA
ATOM     11  C   UNL     1       4.617   7.698  -4.450  0.00  0.00    +0.098 A 
ATOM     12  C   UNL     1       4.517   6.902  -3.315  0.00  0.00    +0.021 A 
ATOM     13  C   UNL     1       4.669   5.551  -3.511  0.00  0.00    +0.003 A 
ATOM     14  C   UNL     1       4.546   5.067  -4.803  0.00  0.00    +0.015 A 
ENDBRANCH   1   9
BRANCH   1  15
ATOM     15  C   UNL     1       2.364   6.731  -6.867  0.00  0.00    +0.028 C 
BRANCH  15  16
ATOM     16  C   UNL     1       0.983   6.408  -6.383  0.00  0.00    +0.073 C 
BRANCH  16  18
ATOM     17  C   UNL     1      -0.544   7.248  -4.993  0.00  0.00    +0.090 C 
ATOM     18  N   UNL     1       0.725   6.881  -5.031  0.00  0.00    -0.270 NA
ATOM     19  C   UNL     1       0.854   5.791  -4.070  0.00  0.00    +0.090 C 
ENDBRANCH  16  18
ENDBRANCH  15  16
ENDBRANCH   1  15
TORSDOF 5
ENDMDL
MODEL 3
REMARK VINA RESULT:      -6.6      2.070      4.099
REMARK  Name = 
REMARK  5 active torsions:
REMARK  status: ('A' for Active; 'I' for Inactive)
REMARK    1  A    between atoms: N_2  and  C_4
REMARK    2  A    between atoms: C_4  and  C_5
REMARK    3  A    between atoms: C_5  and  C_6
REMARK    4  A    between atoms: C_6  and  C_7
REMARK    5  A    between atoms: C_6  and  C_14
REMARK                            x       y       z     vdW  Elec       q    Type
REMARK                         _______ _______ _______ _____ _____    ______ ____
ROOT
ATOM      1  C   UNL     1       1.514   6.467  -6.969  0.00  0.00    +0.064 C 
ENDROOT
BRANCH   1   2
ATOM      2  C   UNL     1       0.058   6.497  -6.239  0.00  0.00    -0.017 A 
ATOM      3  C   UNL     1      -0.846   5.580  -6.700  0.00  0.00    -0.003 A 
ATOM      4  C   UNL     1      -2.014   5.475  -5.949  0.00  0.00    +0.006 A 
ATOM      5  C   UNL     1      -2.119   6.094  -4.708  0.00  0.00    +0.035 A 
ATOM      6 BR   UNL     1      -3.243   5.431  -3.320  0.00  0.00    -0.049 Br
ATOM      7  C   UNL     1      -1.345   7.238  -4.553  0.00  0.00    +0.006 A 
ATOM      8  C   UNL     1      -0.130   7.355  -5.223  0.00  0.00    -0.003 A 
ENDBRANCH   1   2
BRANCH   1   9
ATOM      9  C   UNL     1       2.298   6.292  -5.540  0.00  0.00    +0.063 A 
ATOM     10  N   UNL     1       2.477   4.988  -5.222  0.00  0.00    -0.248 NA
ATOM     11  C   UNL     1       3.559   4.625  -4.511  0.00  0.00    +0.098 A 
ATOM     12  C   UNL     1       4.769   5.246  -4.794  0.00  0.00    +0.021 A 
ATOM     13  C   UNL     1       4.695   6.563  -5.179  0.00  0.00    +0.003 A 
ATOM     14  C   UNL     1       3.465   7.047  -5.595  0.00  0.00    +0.015 A 
ENDBRANCH   1   9
BRANCH   1  15
ATOM     15  C   UNL     1       1.453   4.816  -7.212  0.00  0.00    +0.028 C 
BRANCH  15  16
ATOM     16  C   UNL     1       2.004   4.610  -8.590  0.00  0.00    +0.073 C 
BRANCH  16  18
ATOM     17  C   UNL     1       4.229   4.684  -8.695  0.00  0.00    +0.090 C 
ATOM     18  N   UNL     1       3.163   5.444  -8.873  0.00  0.00    -0.270 NA
ATOM     19  C   UNL     1       3.184   5.839 -10.278  0.00  0.00    +0.090 C 
ENDBRANCH  16  18
ENDBRANCH  15  16
ENDBRANCH   1  15
TORSDOF 5
ENDMDL
MODEL 4
REMARK VINA RESULT:      -6.6      3.300      5.625
REMARK  Name = 
REMARK  5 active torsions:
REMARK  status: ('A' for Active; 'I' for Inactive)
REMARK    1  A    between atoms: N_2  and  C_4
REMARK    2  A    between atoms: C_4  and  C_5
REMARK    3  A    between atoms: C_5  and  C_6
REMARK    4  A    between atoms: C_6  and  C_7
REMARK    5  A    between atoms: C_6  and  C_14
REMARK                            x       y       z     vdW  Elec       q    Type
REMARK                         _______ _______ _______ _____ _____    ______ ____
ROOT
ATOM      1  C   UNL     1       1.136   6.636  -5.239  0.00  0.00    +0.064 C 
ENDROOT
BRANCH   1   2
ATOM      2  C   UNL     1       1.114   6.415  -6.852  0.00  0.00    -0.017 A 
ATOM      3  C   UNL     1       0.215   5.490  -7.304  0.00  0.00    -0.003 A 
ATOM      4  C   UNL     1       0.059   5.444  -8.687  0.00  0.00    +0.006 A 
ATOM      5  C   UNL     1       0.612   6.430  -9.497  0.00  0.00    +0.035 A 
ATOM      6 BR   UNL     1      -0.132   6.914 -11.183  0.00  0.00    -0.049 Br
ATOM      7  C   UNL     1       1.754   7.039  -8.989  0.00  0.00    +0.006 A 
ATOM      8  C   UNL     1       1.916   7.179  -7.613  0.00  0.00    -0.003 A 
ENDBRANCH   1   2
BRANCH   1   9
ATOM      9  C   UNL     1      -0.486   6.428  -5.124  0.00  0.00    +0.063 A 
ATOM     10  N   UNL     1      -0.810   5.536  -4.159  0.00  0.00    -0.248 NA
ATOM     11  C   UNL     1      -1.970   5.677  -3.492  0.00  0.00    +0.098 A 
ATOM     12  C   UNL     1      -2.379   6.960  -3.151  0.00  0.00    +0.021 A 
ATOM     13  C   UNL     1      -2.052   7.953  -4.042  0.00  0.00    +0.003 A 
ATOM     14  C   UNL     1      -1.071   7.682  -4.982  0.00  0.00    +0.015 A 
ENDBRANCH   1   9
BRANCH   1  15
ATOM     15  C   UNL     1       1.431   5.021  -4.936  0.00  0.00    +0.028 C 
BRANCH  15  16
ATOM     16  C   UNL     1       2.924   4.900  -4.917  0.00  0.00    +0.073 C 
BRANCH  16  18
ATOM     17  C   UNL     1       3.947   5.025  -2.940  0.00  0.00    +0.090 C 
ATOM     18  N   UNL     1       3.557   5.784  -3.950  0.00  0.00    -0.270 NA
ATOM     19  C   UNL     1       4.774   6.368  -4.504  0.00  0.00    +0.090 C 
ENDBRANCH  16  18
ENDBRANCH  15  16
ENDBRANCH   1  15
TORSDOF 5
ENDMDL
MODEL 5
REMARK VINA RESULT:      -6.5      3.659      5.716
REMARK  Name = 
REMARK  5 active torsions:
REMARK  status: ('A' for Active; 'I' for Inactive)
REMARK    1  A    between atoms: N_2  and  C_4
REMARK    2  A    between atoms: C_4  and  C_5
REMARK    3  A    between atoms: C_5  and  C_6
REMARK    4  A    between atoms: C_6  and  C_7
REMARK    5  A    between atoms: C_6  and  C_14
REMARK                            x       y       z     vdW  Elec       q    Type
REMARK                         _______ _______ _______ _____ _____    ______ ____
ROOT
ATOM      1  C   UNL     1       2.776   6.735  -6.009  0.00  0.00    +0.064 C 
ENDROOT
BRANCH   1   2
ATOM      2  C   UNL     1       3.585   6.530  -4.610  0.00  0.00    -0.017 A 
ATOM      3  C   UNL     1       4.433   7.547  -4.271  0.00  0.00    -0.003 A 
ATOM      4  C   UNL     1       4.972   7.463  -2.989  0.00  0.00    +0.006 A 
ATOM      5  C   UNL     1       4.484   6.538  -2.073  0.00  0.00    +0.035 A 
ATOM      6 BR   UNL     1       4.550   6.820  -0.190  0.00  0.00    -0.049 Br
ATOM      7  C   UNL     1       3.944   5.384  -2.630  0.00  0.00    +0.006 A 
ATOM      8  C   UNL     1       3.326   5.435  -3.877  0.00  0.00    -0.003 A 
ENDBRANCH   1   2
BRANCH   1   9
ATOM      9  C   UNL     1       3.333   5.317  -6.614  0.00  0.00    +0.063 A 
ATOM     10  N   UNL     1       2.398   4.691  -7.366  0.00  0.00    -0.248 NA
ATOM     11  C   UNL     1       2.788   3.926  -8.402  0.00  0.00    +0.098 A 
ATOM     12  C   UNL     1       3.849   4.370  -9.181  0.00  0.00    +0.021 A 
ATOM     13  C   UNL     1       4.832   5.066  -8.522  0.00  0.00    +0.003 A 
ATOM     14  C   UNL     1       4.535   5.572  -7.267  0.00  0.00    +0.015 A 
ENDBRANCH   1   9
BRANCH   1  15
ATOM     15  C   UNL     1       1.393   6.013  -5.413  0.00  0.00    +0.028 C 
BRANCH  15  16
ATOM     16  C   UNL     1       0.338   7.074  -5.497  0.00  0.00    +0.073 C 
BRANCH  16  18
ATOM     17  C   UNL     1      -1.612   7.760  -4.664  0.00  0.00    +0.090 C 
ATOM     18  N   UNL     1      -0.939   6.656  -4.938  0.00  0.00    -0.270 NA
ATOM     19  C   UNL     1      -1.731   5.944  -5.935  0.00  0.00    +0.090 C 
ENDBRANCH  16  18
ENDBRANCH  15  16
ENDBRANCH   1  15
TORSDOF 5
ENDMDL
MODEL 6
REMARK VINA RESULT:      -6.5      3.810      6.864
REMARK  Name = 
REMARK  5 active torsions:
REMARK  status: ('A' for Active; 'I' for Inactive)
REMARK    1  A    between atoms: N_2  and  C_4
REMARK    2  A    between atoms: C_4  and  C_5
REMARK    3  A    between atoms: C_5  and  C_6
REMARK    4  A    between atoms: C_6  and  C_7
REMARK    5  A    between atoms: C_6  and  C_14
REMARK                            x       y       z     vdW  Elec       q    Type
REMARK                         _______ _______ _______ _____ _____    ______ ____
ROOT
ATOM      1  C   UNL     1       3.764   4.688  -9.007  0.00  0.00    +0.064 C 
ENDROOT
BRANCH   1   2
ATOM      2  C   UNL     1       5.025   5.406  -9.747  0.00  0.00    -0.017 A 
ATOM      3  C   UNL     1       6.177   5.468  -9.012  0.00  0.00    -0.003 A 
ATOM      4  C   UNL     1       7.300   5.901  -9.711  0.00  0.00    +0.006 A 
ATOM      5  C   UNL     1       7.271   6.025 -11.096  0.00  0.00    +0.035 A 
ATOM      6 BR   UNL     1       8.826   5.838 -12.180  0.00  0.00    -0.049 Br
ATOM      7  C   UNL     1       6.020   6.301 -11.637  0.00  0.00    +0.006 A 
ATOM      8  C   UNL     1       4.870   5.821 -11.015  0.00  0.00    -0.003 A 
ENDBRANCH   1   2
BRANCH   1   9
ATOM      9  C   UNL     1       3.760   5.795  -7.798  0.00  0.00    +0.063 A 
ATOM     10  N   UNL     1       3.049   6.898  -8.131  0.00  0.00    -0.248 NA
ATOM     11  C   UNL     1       2.410   7.586  -7.168  0.00  0.00    +0.098 A 
ATOM     12  C   UNL     1       1.786   6.870  -6.155  0.00  0.00    +0.021 A 
ATOM     13  C   UNL     1       2.401   5.702  -5.776  0.00  0.00    +0.003 A 
ATOM     14  C   UNL     1       3.343   5.158  -6.634  0.00  0.00    +0.015 A 
ENDBRANCH   1   9
BRANCH   1  15
ATOM     15  C   UNL     1       2.643   5.553  -9.892  0.00  0.00    +0.028 C 
BRANCH  15  16
ATOM     16  C   UNL     1       1.482   4.620 -10.059  0.00  0.00    +0.073 C 
BRANCH  16  18
ATOM     17  C   UNL     1      -0.176   5.446  -8.819  0.00  0.00    +0.090 C 
ATOM     18  N   UNL     1       0.198   5.304 -10.079  0.00  0.00    -0.270 NA
ATOM     19  C   UNL     1       0.341   6.656 -10.608  0.00  0.00    +0.090 C 
ENDBRANCH  16  18
ENDBRANCH  15  16
ENDBRANCH   1  15
TORSDOF 5
ENDMDL
MODEL 7
REMARK VINA RESULT:      -6.4      3.414      5.832
REMARK  Name = 
REMARK  5 active torsions:
REMARK  status: ('A' for Active; 'I' for Inactive)
REMARK    1  A    between atoms: N_2  and  C_4
REMARK    2  A    between atoms: C_4  and  C_5
REMARK    3  A    between atoms: C_5  and  C_6
REMARK    4  A    between atoms: C_6  and  C_7
REMARK    5  A    between atoms: C_6  and  C_14
REMARK                            x       y       z     vdW  Elec       q    Type
REMARK                         _______ _______ _______ _____ _____    ______ ____
ROOT
ATOM      1  C   UNL     1       1.116   6.552  -5.064  0.00  0.00    +0.064 C 
ENDROOT
BRANCH   1   2
ATOM      2  C   UNL     1       1.097   6.595  -6.692  0.00  0.00    -0.017 A 
ATOM      3  C   UNL     1       1.959   7.489  -7.264  0.00  0.00    -0.003 A 
ATOM      4  C   UNL     1       2.084   7.387  -8.647  0.00  0.00    +0.006 A 
ATOM      5  C   UNL     1       1.544   6.303  -9.331  0.00  0.00    +0.035 A 
ATOM      6 BR   UNL     1       2.266   5.657 -10.971  0.00  0.00    -0.049 Br
ATOM      7  C   UNL     1       0.432   5.723  -8.731  0.00  0.00    +0.006 A 
ATOM      8  C   UNL     1       0.302   5.731  -7.345  0.00  0.00    -0.003 A 
ENDBRANCH   1   2
BRANCH   1   9
ATOM      9  C   UNL     1      -0.510   6.359  -4.986  0.00  0.00    +0.063 A 
ATOM     10  N   UNL     1      -0.864   5.474  -4.025  0.00  0.00    -0.248 NA
ATOM     11  C   UNL     1      -2.037   5.627  -3.386  0.00  0.00    +0.098 A 
ATOM     12  C   UNL     1      -2.442   6.915  -3.060  0.00  0.00    +0.021 A 
ATOM     13  C   UNL     1      -2.087   7.902  -3.947  0.00  0.00    +0.003 A 
ATOM     14  C   UNL     1      -1.086   7.618  -4.862  0.00  0.00    +0.015 A 
ENDBRANCH   1   9
BRANCH   1  15
ATOM     15  C   UNL     1       1.380   4.904  -5.026  0.00  0.00    +0.028 C 
BRANCH  15  16
ATOM     16  C   UNL     1       2.870   4.754  -4.963  0.00  0.00    +0.073 C 
BRANCH  16  18
ATOM     17  C   UNL     1       3.918   5.023  -3.014  0.00  0.00    +0.090 C 
ATOM     18  N   UNL     1       3.503   5.709  -4.065  0.00  0.00    -0.270 NA
ATOM     19  C   UNL     1       4.704   6.271  -4.674  0.00  0.00    +0.090 C 
ENDBRANCH  16  18
ENDBRANCH  15  16
ENDBRANCH   1  15
TORSDOF 5
ENDMDL
MODEL 8
REMARK VINA RESULT:      -6.4      3.856      6.178
REMARK  Name = 
REMARK  5 active torsions:
REMARK  status: ('A' for Active; 'I' for Inactive)
REMARK    1  A    between atoms: N_2  and  C_4
REMARK    2  A    between atoms: C_4  and  C_5
REMARK    3  A    between atoms: C_5  and  C_6
REMARK    4  A    between atoms: C_6  and  C_7
REMARK    5  A    between atoms: C_6  and  C_14
REMARK                            x       y       z     vdW  Elec       q    Type
REMARK                         _______ _______ _______ _____ _____    ______ ____
ROOT
ATOM      1  C   UNL     1       3.033   6.911  -7.227  0.00  0.00    +0.064 C 
ENDROOT
BRANCH   1   2
ATOM      2  C   UNL     1       4.057   6.348  -8.362  0.00  0.00    -0.017 A 
ATOM      3  C   UNL     1       3.932   6.918  -9.598  0.00  0.00    -0.003 A 
ATOM      4  C   UNL     1       4.931   6.579 -10.508  0.00  0.00    +0.006 A 
ATOM      5  C   UNL     1       6.072   5.903 -10.090  0.00  0.00    +0.035 A 
ATOM      6 BR   UNL     1       7.749   6.071 -10.977  0.00  0.00    -0.049 Br
ATOM      7  C   UNL     1       5.901   5.089  -8.976  0.00  0.00    +0.006 A 
ATOM      8  C   UNL     1       4.969   5.430  -8.000  0.00  0.00    -0.003 A 
ENDBRANCH   1   2
BRANCH   1   9
ATOM      9  C   UNL     1       2.065   5.594  -7.355  0.00  0.00    +0.063 A 
ATOM     10  N   UNL     1       1.754   5.082  -6.141  0.00  0.00    -0.248 NA
ATOM     11  C   UNL     1       0.567   4.472  -5.966  0.00  0.00    +0.098 A 
ATOM     12  C   UNL     1      -0.549   5.023  -6.583  0.00  0.00    +0.021 A 
ATOM     13  C   UNL     1      -0.333   5.618  -7.802  0.00  0.00    +0.003 A 
ATOM     14  C   UNL     1       0.971   5.940  -8.142  0.00  0.00    +0.015 A 
ENDBRANCH   1   9
BRANCH   1  15
ATOM     15  C   UNL     1       3.907   6.230  -5.978  0.00  0.00    +0.028 C 
BRANCH  15  16
ATOM     16  C   UNL     1       4.043   7.323  -4.962  0.00  0.00    +0.073 C 
BRANCH  16  18
ATOM     17  C   UNL     1       2.814   6.906  -3.150  0.00  0.00    +0.090 C 
ATOM     18  N   UNL     1       4.057   6.832  -3.592  0.00  0.00    -0.270 NA
ATOM     19  C   UNL     1       4.411   5.417  -3.555  0.00  0.00    +0.090 C 
ENDBRANCH  16  18
ENDBRANCH  15  16
ENDBRANCH   1  15
TORSDOF 5
ENDMDL
MODEL 9
REMARK VINA RESULT:      -6.3      4.168      6.528
REMARK  Name = 
REMARK  5 active torsions:
REMARK  status: ('A' for Active; 'I' for Inactive)
REMARK    1  A    between atoms: N_2  and  C_4
REMARK    2  A    between atoms: C_4  and  C_5
REMARK    3  A    between atoms: C_5  and  C_6
REMARK    4  A    between atoms: C_6  and  C_7
REMARK    5  A    between atoms: C_6  and  C_14
REMARK                            x       y       z     vdW  Elec       q    Type
REMARK                         _______ _______ _______ _____ _____    ______ ____
ROOT
ATOM      1  C   UNL     1       3.439   6.713  -9.839  0.00  0.00    +0.064 C 
ENDROOT
BRANCH   1   2
ATOM      2  C   UNL     1       4.720   6.587 -10.837  0.00  0.00    -0.017 A 
ATOM      3  C   UNL     1       5.488   7.713 -10.948  0.00  0.00    -0.003 A 
ATOM      4  C   UNL     1       6.684   7.545 -11.642  0.00  0.00    +0.006 A 
ATOM      5  C   UNL     1       7.139   6.274 -11.976  0.00  0.00    +0.035 A 
ATOM      6 BR   UNL     1       8.987   5.865 -12.186  0.00  0.00    -0.049 Br
ATOM      7  C   UNL     1       6.144   5.319 -12.151  0.00  0.00    +0.006 A 
ATOM      8  C   UNL     1       4.961   5.401 -11.420  0.00  0.00    -0.003 A 
ENDBRANCH   1   2
BRANCH   1   9
ATOM      9  C   UNL     1       2.542   5.692 -10.756  0.00  0.00    +0.063 A 
ATOM     10  N   UNL     1       1.742   4.908  -9.996  0.00  0.00    -0.248 NA
ATOM     11  C   UNL     1       0.558   4.500 -10.488  0.00  0.00    +0.098 A 
ATOM     12  C   UNL     1      -0.185   5.401 -11.240  0.00  0.00    +0.021 A 
ATOM     13  C   UNL     1       0.535   6.282 -12.010  0.00  0.00    +0.003 A 
ATOM     14  C   UNL     1       1.879   6.448 -11.717  0.00  0.00    +0.015 A 
ENDBRANCH   1   9
BRANCH   1  15
ATOM     15  C   UNL     1       3.972   5.471  -8.859  0.00  0.00    +0.028 C 
BRANCH  15  16
ATOM     16  C   UNL     1       3.856   6.004  -7.464  0.00  0.00    +0.073 C 
BRANCH  16  18
ATOM     17  C   UNL     1       4.102   5.464  -5.315  0.00  0.00    +0.090 C 
ATOM     18  N   UNL     1       3.688   4.960  -6.465  0.00  0.00    -0.270 NA
ATOM     19  C   UNL     1       2.275   4.646  -6.278  0.00  0.00    +0.090 C 
ENDBRANCH  16  18
ENDBRANCH  15  16
ENDBRANCH   1  15
TORSDOF 5
ENDMDL
