MODEL 1
REMARK VINA RESULT:      -9.0      0.000      0.000
REMARK  Name = 
REMARK  4 active torsions:
REMARK  status: ('A' for Active; 'I' for Inactive)
REMARK    1  A    between atoms: C_2  and  C_3
REMARK    2  A    between atoms: C_2  and  C_8
REMARK    3  A    between atoms: C_3  and  C_4
REMARK    4  A    between atoms: C_4  and  C_5
REMARK                            x       y       z     vdW  Elec       q    Type
REMARK                         _______ _______ _______ _____ _____    ______ ____
ROOT
ATOM      1  C   UNL     1       4.150   5.502  -8.363  0.00  0.00    +0.002 C 
ATOM      2  C   UNL     1       3.078   5.682  -7.192  0.00  0.00    +0.028 C 
ATOM      3  C   UNL     1       1.773   5.360  -8.065  0.00  0.00    +0.002 C 
ATOM      4  C   UNL     1       0.774   5.139  -6.742  0.00  0.00    +0.000 C 
ATOM      5  C   UNL     1       0.584   6.768  -6.317  0.00  0.00    +0.003 C 
ATOM      6  C   UNL     1       1.997   6.885  -5.524  0.00  0.00    +0.033 C 
ATOM      7  C   UNL     1      -0.361   6.283  -5.115  0.00  0.00    +0.000 C 
ATOM      8  C   UNL     1      -1.832   6.507  -5.777  0.00  0.00    +0.003 C 
ATOM      9  C   UNL     1      -2.544   5.455  -4.752  0.00  0.00    +0.033 C 
ATOM     10  C   UNL     1      -2.815   6.399  -3.435  0.00  0.00    +0.152 C 
ATOM     11  C   UNL     1      -1.238   6.347  -2.960  0.00  0.00    +0.033 C 
ATOM     12  O   UNL     1      -3.160   5.181  -2.586  0.00  0.00    -0.223 OA
ATOM     13  C   UNL     1      -1.721   5.345  -6.906  0.00  0.00    +0.000 C 
ATOM     14  C   UNL     1      -0.176   4.932  -4.655  0.00  0.00    +0.000 C 
ATOM     15  C   UNL     1      -0.469   7.190  -3.986  0.00  0.00    +0.003 C 
ATOM     16  C   UNL     1      -0.518   5.361  -7.678  0.00  0.00    +0.000 C 
ATOM     17  C   UNL     1       2.298   3.826  -8.100  0.00  0.00    +0.000 C 
ATOM     18  C   UNL     1       3.344   4.950  -6.043  0.00  0.00    +0.003 C 
ATOM     19  C   UNL     1       2.825   7.254  -6.928  0.00  0.00    +0.152 C 
ATOM     20  O   UNL     1       4.158   7.386  -6.212  0.00  0.00    -0.223 OA
ATOM     21  C   UNL     1       3.692   3.960  -8.583  0.00  0.00    +0.000 C 
ENDROOT
BRANCH   1  23
ATOM     22  C   UNL     1       3.787   5.192 -10.735  0.00  0.00    +0.000 C 
ATOM     23  C   UNL     1       3.109   6.100  -9.577  0.00  0.00    +0.001 C 
BRANCH  23  24
ATOM     24  C   UNL     1       4.063   7.373  -9.870  0.00  0.00    +0.012 C 
BRANCH  24  25
ATOM     25  C   UNL     1       4.896   7.064 -11.058  0.00  0.00    +0.114 C 
BRANCH  25  26
ATOM     26  C   UNL     1       6.265   7.628 -10.930  0.00  0.00    +0.365 C 
ATOM     27  O   UNL     1       7.322   6.907 -10.421  0.00  0.00    -0.246 OA
ATOM     28  O   UNL     1       6.431   8.638 -11.677  0.00  0.00    -0.246 OA
ENDBRANCH  25  26
ENDBRANCH  24  25
ENDBRANCH  23  24
ENDBRANCH   1  23
TORSDOF 4
ENDMDL
MODEL 2
REMARK VINA RESULT:      -8.6      3.154      6.513
REMARK  Name = 
REMARK  4 active torsions:
REMARK  status: ('A' for Active; 'I' for Inactive)
REMARK    1  A    between atoms: C_2  and  C_3
REMARK    2  A    between atoms: C_2  and  C_8
REMARK    3  A    between atoms: C_3  and  C_4
REMARK    4  A    between atoms: C_4  and  C_5
REMARK                            x       y       z     vdW  Elec       q    Type
REMARK                         _______ _______ _______ _____ _____    ______ ____
ROOT
ATOM      1  C   UNL     1       3.473   5.501  -3.969  0.00  0.00    +0.002 C 
ATOM      2  C   UNL     1       2.682   5.265  -5.338  0.00  0.00    +0.028 C 
ATOM      3  C   UNL     1       3.589   6.211  -6.258  0.00  0.00    +0.002 C 
ATOM      4  C   UNL     1       3.005   5.601  -7.701  0.00  0.00    +0.000 C 
ATOM      5  C   UNL     1       1.497   6.373  -7.690  0.00  0.00    +0.003 C 
ATOM      6  C   UNL     1       0.789   5.311  -6.684  0.00  0.00    +0.033 C 
ATOM      7  C   UNL     1       1.188   5.661  -9.094  0.00  0.00    +0.000 C 
ATOM      8  C   UNL     1       1.554   6.864 -10.130  0.00  0.00    +0.003 C 
ATOM      9  C   UNL     1       1.776   5.833 -11.376  0.00  0.00    +0.033 C 
ATOM     10  C   UNL     1       0.238   5.621 -11.914  0.00  0.00    +0.152 C 
ATOM     11  C   UNL     1      -0.152   4.604 -10.677  0.00  0.00    +0.033 C 
ATOM     12  O   UNL     1       0.668   4.457 -12.798  0.00  0.00    -0.223 OA
ATOM     13  C   UNL     1       3.154   6.884  -9.852  0.00  0.00    +0.000 C 
ATOM     14  C   UNL     1       1.923   4.458  -9.382  0.00  0.00    +0.000 C 
ATOM     15  C   UNL     1      -0.215   5.485  -9.423  0.00  0.00    +0.003 C 
ATOM     16  C   UNL     1       3.531   6.913  -8.472  0.00  0.00    +0.000 C 
ATOM     17  C   UNL     1       4.750   5.092  -6.093  0.00  0.00    +0.000 C 
ATOM     18  C   UNL     1       2.498   3.932  -5.679  0.00  0.00    +0.003 C 
ATOM     19  C   UNL     1       1.324   6.138  -5.335  0.00  0.00    +0.152 C 
ATOM     20  O   UNL     1       0.661   5.172  -4.369  0.00  0.00    -0.223 OA
ATOM     21  C   UNL     1       4.837   4.915  -4.625  0.00  0.00    +0.000 C 
ENDROOT
BRANCH   1  23
ATOM     22  C   UNL     1       5.276   7.056  -3.540  0.00  0.00    +0.000 C 
ATOM     23  C   UNL     1       3.865   7.123  -4.331  0.00  0.00    +0.001 C 
BRANCH  23  24
ATOM     24  C   UNL     1       3.053   7.682  -3.049  0.00  0.00    +0.012 C 
BRANCH  24  25
ATOM     25  C   UNL     1       3.993   8.461  -2.208  0.00  0.00    +0.114 C 
BRANCH  25  26
ATOM     26  C   UNL     1       3.443   8.702  -0.848  0.00  0.00    +0.365 C 
ATOM     27  O   UNL     1       3.375   9.957  -0.285  0.00  0.00    -0.246 OA
ATOM     28  O   UNL     1       2.710   7.744  -0.460  0.00  0.00    -0.246 OA
ENDBRANCH  25  26
ENDBRANCH  24  25
ENDBRANCH  23  24
ENDBRANCH   1  23
TORSDOF 4
ENDMDL
MODEL 3
REMARK VINA RESULT:      -8.5      2.869      4.365
REMARK  Name = 
REMARK  4 active torsions:
REMARK  status: ('A' for Active; 'I' for Inactive)
REMARK    1  A    between atoms: C_2  and  C_3
REMARK    2  A    between atoms: C_2  and  C_8
REMARK    3  A    between atoms: C_3  and  C_4
REMARK    4  A    between atoms: C_4  and  C_5
REMARK                            x       y       z     vdW  Elec       q    Type
REMARK                         _______ _______ _______ _____ _____    ______ ____
ROOT
ATOM      1  C   UNL     1       2.343   5.800  -8.779  0.00  0.00    +0.002 C 
ATOM      2  C   UNL     1       2.436   5.622  -7.194  0.00  0.00    +0.028 C 
ATOM      3  C   UNL     1       3.394   6.874  -6.909  0.00  0.00    +0.002 C 
ATOM      4  C   UNL     1       3.106   6.894  -5.262  0.00  0.00    +0.000 C 
ATOM      5  C   UNL     1       4.054   5.555  -4.840  0.00  0.00    +0.003 C 
ATOM      6  C   UNL     1       2.943   4.445  -5.256  0.00  0.00    +0.033 C 
ATOM      7  C   UNL     1       3.626   5.807  -3.315  0.00  0.00    +0.000 C 
ATOM      8  C   UNL     1       4.923   6.625  -2.767  0.00  0.00    +0.003 C 
ATOM      9  C   UNL     1       4.088   7.279  -1.526  0.00  0.00    +0.033 C 
ATOM     10  C   UNL     1       4.167   6.084  -0.401  0.00  0.00    +0.152 C 
ATOM     11  C   UNL     1       3.022   5.172  -1.158  0.00  0.00    +0.033 C 
ATOM     12  O   UNL     1       3.115   6.774   0.460  0.00  0.00    -0.223 OA
ATOM     13  C   UNL     1       4.691   7.973  -3.643  0.00  0.00    +0.000 C 
ATOM     14  C   UNL     1       2.400   6.530  -3.100  0.00  0.00    +0.000 C 
ATOM     15  C   UNL     1       3.688   4.651  -2.438  0.00  0.00    +0.003 C 
ATOM     16  C   UNL     1       4.447   7.758  -5.036  0.00  0.00    +0.000 C 
ATOM     17  C   UNL     1       2.122   7.806  -7.284  0.00  0.00    +0.000 C 
ATOM     18  C   UNL     1       1.211   5.522  -6.548  0.00  0.00    +0.003 C 
ATOM     19  C   UNL     1       3.465   4.428  -6.844  0.00  0.00    +0.152 C 
ATOM     20  O   UNL     1       2.448   3.380  -7.260  0.00  0.00    -0.223 OA
ATOM     21  C   UNL     1       1.700   7.279  -8.603  0.00  0.00    +0.000 C 
ENDROOT
BRANCH   1  23
ATOM     22  C   UNL     1       3.627   7.137 -10.334  0.00  0.00    +0.000 C 
ATOM     23  C   UNL     1       3.938   6.391  -8.931  0.00  0.00    +0.001 C 
BRANCH  23  24
ATOM     24  C   UNL     1       4.450   5.033  -9.647  0.00  0.00    +0.012 C 
BRANCH  24  25
ATOM     25  C   UNL     1       5.476   5.399 -10.653  0.00  0.00    +0.114 C 
BRANCH  25  26
ATOM     26  C   UNL     1       6.722   5.894 -10.010  0.00  0.00    +0.365 C 
ATOM     27  O   UNL     1       7.580   5.069  -9.317  0.00  0.00    -0.246 OA
ATOM     28  O   UNL     1       7.093   7.005 -10.494  0.00  0.00    -0.246 OA
ENDBRANCH  25  26
ENDBRANCH  24  25
ENDBRANCH  23  24
ENDBRANCH   1  23
TORSDOF 4
ENDMDL
MODEL 4
REMARK VINA RESULT:      -8.4      4.437      8.382
REMARK  Name = 
REMARK  4 active torsions:
REMARK  status: ('A' for Active; 'I' for Inactive)
REMARK    1  A    between atoms: C_2  and  C_3
REMARK    2  A    between atoms: C_2  and  C_8
REMARK    3  A    between atoms: C_3  and  C_4
REMARK    4  A    between atoms: C_4  and  C_5
REMARK                            x       y       z     vdW  Elec       q    Type
REMARK                         _______ _______ _______ _____ _____    ______ ____
ROOT
ATOM      1  C   UNL     1       3.383   6.960   0.355  0.00  0.00    +0.002 C 
ATOM      2  C   UNL     1       3.055   6.234  -1.030  0.00  0.00    +0.028 C 
ATOM      3  C   UNL     1       3.701   7.340  -1.992  0.00  0.00    +0.002 C 
ATOM      4  C   UNL     1       3.719   6.354  -3.342  0.00  0.00    +0.000 C 
ATOM      5  C   UNL     1       2.065   6.419  -3.704  0.00  0.00    +0.003 C 
ATOM      6  C   UNL     1       1.625   5.304  -2.607  0.00  0.00    +0.033 C 
ATOM      7  C   UNL     1       2.361   5.463  -4.957  0.00  0.00    +0.000 C 
ATOM      8  C   UNL     1       2.446   6.558  -6.160  0.00  0.00    +0.003 C 
ATOM      9  C   UNL     1       3.308   5.557  -7.120  0.00  0.00    +0.033 C 
ATOM     10  C   UNL     1       2.124   4.653  -7.811  0.00  0.00    +0.152 C 
ATOM     11  C   UNL     1       1.902   3.742  -6.456  0.00  0.00    +0.033 C 
ATOM     12  O   UNL     1       3.147   3.667  -8.363  0.00  0.00    -0.223 OA
ATOM     13  C   UNL     1       3.816   7.282  -5.672  0.00  0.00    +0.000 C 
ATOM     14  C   UNL     1       3.545   4.650  -4.882  0.00  0.00    +0.000 C 
ATOM     15  C   UNL     1       1.238   4.675  -5.435  0.00  0.00    +0.003 C 
ATOM     16  C   UNL     1       3.850   7.649  -4.290  0.00  0.00    +0.000 C 
ATOM     17  C   UNL     1       5.139   6.841  -1.436  0.00  0.00    +0.000 C 
ATOM     18  C   UNL     1       3.476   4.913  -1.108  0.00  0.00    +0.003 C 
ATOM     19  C   UNL     1       1.499   6.452  -1.399  0.00  0.00    +0.152 C 
ATOM     20  O   UNL     1       1.071   5.436  -0.356  0.00  0.00    -0.223 OA
ATOM     21  C   UNL     1       4.973   6.915   0.034  0.00  0.00    +0.000 C 
ENDROOT
BRANCH   1  23
ATOM     22  C   UNL     1       3.977   9.228   0.951  0.00  0.00    +0.000 C 
ATOM     23  C   UNL     1       3.187   8.532  -0.280  0.00  0.00    +0.001 C 
BRANCH  23  24
ATOM     24  C   UNL     1       1.736   8.710   0.414  0.00  0.00    +0.012 C 
BRANCH  24  25
ATOM     25  C   UNL     1       1.674  10.064   1.016  0.00  0.00    +0.114 C 
BRANCH  25  26
ATOM     26  C   UNL     1       0.493  10.214   1.907  0.00  0.00    +0.365 C 
ATOM     27  O   UNL     1      -0.802  10.113   1.450  0.00  0.00    -0.246 OA
ATOM     28  O   UNL     1       0.798  10.043   3.125  0.00  0.00    -0.246 OA
ENDBRANCH  25  26
ENDBRANCH  24  25
ENDBRANCH  23  24
ENDBRANCH   1  23
TORSDOF 4
ENDMDL
MODEL 5
REMARK VINA RESULT:      -8.3      2.028      7.948
REMARK  Name = 
REMARK  4 active torsions:
REMARK  status: ('A' for Active; 'I' for Inactive)
REMARK    1  A    between atoms: C_2  and  C_3
REMARK    2  A    between atoms: C_2  and  C_8
REMARK    3  A    between atoms: C_3  and  C_4
REMARK    4  A    between atoms: C_4  and  C_5
REMARK                            x       y       z     vdW  Elec       q    Type
REMARK                         _______ _______ _______ _____ _____    ______ ____
ROOT
ATOM      1  C   UNL     1       0.830   5.402  -7.472  0.00  0.00    +0.002 C 
ATOM      2  C   UNL     1       1.894   5.598  -8.648  0.00  0.00    +0.028 C 
ATOM      3  C   UNL     1       3.209   5.332  -7.774  0.00  0.00    +0.002 C 
ATOM      4  C   UNL     1       4.213   5.124  -9.095  0.00  0.00    +0.000 C 
ATOM      5  C   UNL     1       4.349   6.752  -9.546  0.00  0.00    +0.003 C 
ATOM      6  C   UNL     1       2.932   6.810 -10.337  0.00  0.00    +0.033 C 
ATOM      7  C   UNL     1       5.307   6.278 -10.743  0.00  0.00    +0.000 C 
ATOM      8  C   UNL     1       6.771   6.561 -10.088  0.00  0.00    +0.003 C 
ATOM      9  C   UNL     1       7.515   5.516 -11.098  0.00  0.00    +0.033 C 
ATOM     10  C   UNL     1       7.753   6.448 -12.430  0.00  0.00    +0.152 C 
ATOM     11  C   UNL     1       6.177   6.337 -12.901  0.00  0.00    +0.033 C 
ATOM     12  O   UNL     1       8.135   5.229 -13.261  0.00  0.00    -0.223 OA
ATOM     13  C   UNL     1       6.700   5.414  -8.941  0.00  0.00    +0.000 C 
ATOM     14  C   UNL     1       5.165   4.916 -11.181  0.00  0.00    +0.000 C 
ATOM     15  C   UNL     1       5.383   7.171 -11.886  0.00  0.00    +0.003 C 
ATOM     16  C   UNL     1       5.498   5.403  -8.166  0.00  0.00    +0.000 C 
ATOM     17  C   UNL     1       2.735   3.783  -7.714  0.00  0.00    +0.000 C 
ATOM     18  C   UNL     1       1.649   4.840  -9.785  0.00  0.00    +0.003 C 
ATOM     19  C   UNL     1       2.095   7.174  -8.938  0.00  0.00    +0.152 C 
ATOM     20  O   UNL     1       0.757   7.251  -9.652  0.00  0.00    -0.223 OA
ATOM     21  C   UNL     1       1.338   3.880  -7.229  0.00  0.00    +0.000 C 
ENDROOT
BRANCH   1  23
ATOM     22  C   UNL     1       1.233   5.115  -5.104  0.00  0.00    +0.000 C 
ATOM     23  C   UNL     1       1.853   6.052  -6.270  0.00  0.00    +0.001 C 
BRANCH  23  24
ATOM     24  C   UNL     1       0.841   7.278  -5.969  0.00  0.00    +0.012 C 
BRANCH  24  25
ATOM     25  C   UNL     1       0.100   6.970  -4.722  0.00  0.00    +0.114 C 
BRANCH  25  26
ATOM     26  C   UNL     1      -1.326   7.383  -4.815  0.00  0.00    +0.365 C 
ATOM     27  O   UNL     1      -1.756   8.651  -4.492  0.00  0.00    -0.246 OA
ATOM     28  O   UNL     1      -1.991   6.613  -5.571  0.00  0.00    -0.246 OA
ENDBRANCH  25  26
ENDBRANCH  24  25
ENDBRANCH  23  24
ENDBRANCH   1  23
TORSDOF 4
ENDMDL
MODEL 6
REMARK VINA RESULT:      -8.2      3.160      4.234
REMARK  Name = 
REMARK  4 active torsions:
REMARK  status: ('A' for Active; 'I' for Inactive)
REMARK    1  A    between atoms: C_2  and  C_3
REMARK    2  A    between atoms: C_2  and  C_8
REMARK    3  A    between atoms: C_3  and  C_4
REMARK    4  A    between atoms: C_4  and  C_5
REMARK                            x       y       z     vdW  Elec       q    Type
REMARK                         _______ _______ _______ _____ _____    ______ ____
ROOT
ATOM      1  C   UNL     1       2.400   5.199  -9.121  0.00  0.00    +0.002 C 
ATOM      2  C   UNL     1       2.841   5.632  -7.647  0.00  0.00    +0.028 C 
ATOM      3  C   UNL     1       1.593   4.993  -6.871  0.00  0.00    +0.002 C 
ATOM      4  C   UNL     1       2.306   5.090  -5.362  0.00  0.00    +0.000 C 
ATOM      5  C   UNL     1       2.122   6.757  -5.121  0.00  0.00    +0.003 C 
ATOM      6  C   UNL     1       3.410   7.183  -6.014  0.00  0.00    +0.033 C 
ATOM      7  C   UNL     1       2.833   6.569  -3.695  0.00  0.00    +0.000 C 
ATOM      8  C   UNL     1       1.534   6.503  -2.715  0.00  0.00    +0.003 C 
ATOM      9  C   UNL     1       2.362   5.738  -1.535  0.00  0.00    +0.033 C 
ATOM     10  C   UNL     1       3.081   6.994  -0.760  0.00  0.00    +0.152 C 
ATOM     11  C   UNL     1       4.225   7.181  -1.932  0.00  0.00    +0.033 C 
ATOM     12  O   UNL     1       3.976   6.045   0.028  0.00  0.00    -0.223 OA
ATOM     13  C   UNL     1       0.958   5.080  -3.245  0.00  0.00    +0.000 C 
ATOM     14  C   UNL     1       3.683   5.418  -3.545  0.00  0.00    +0.000 C 
ATOM     15  C   UNL     1       3.481   7.748  -3.148  0.00  0.00    +0.003 C 
ATOM     16  C   UNL     1       0.860   4.956  -4.667  0.00  0.00    +0.000 C 
ATOM     17  C   UNL     1       2.233   3.549  -7.235  0.00  0.00    +0.000 C 
ATOM     18  C   UNL     1       4.135   5.272  -7.298  0.00  0.00    +0.003 C 
ATOM     19  C   UNL     1       2.508   7.195  -7.421  0.00  0.00    +0.152 C 
ATOM     20  O   UNL     1       3.690   7.609  -8.280  0.00  0.00    -0.223 OA
ATOM     21  C   UNL     1       2.433   3.632  -8.701  0.00  0.00    +0.000 C 
ENDROOT
BRANCH   1  23
ATOM     22  C   UNL     1       0.311   4.353  -9.999  0.00  0.00    +0.000 C 
ATOM     23  C   UNL     1       0.731   5.363  -8.804  0.00  0.00    +0.001 C 
BRANCH  23  24
ATOM     24  C   UNL     1       0.609   6.681  -9.734  0.00  0.00    +0.012 C 
BRANCH  24  25
ATOM     25  C   UNL     1      -0.130   6.313 -10.966  0.00  0.00    +0.114 C 
BRANCH  25  26
ATOM     26  C   UNL     1      -0.122   7.417 -11.962  0.00  0.00    +0.365 C 
ATOM     27  O   UNL     1       0.233   7.228 -13.279  0.00  0.00    -0.246 OA
ATOM     28  O   UNL     1      -0.830   8.398 -11.584  0.00  0.00    -0.246 OA
ENDBRANCH  25  26
ENDBRANCH  24  25
ENDBRANCH  23  24
ENDBRANCH   1  23
TORSDOF 4
ENDMDL
MODEL 7
REMARK VINA RESULT:      -8.2      3.013      4.596
REMARK  Name = 
REMARK  4 active torsions:
REMARK  status: ('A' for Active; 'I' for Inactive)
REMARK    1  A    between atoms: C_2  and  C_3
REMARK    2  A    between atoms: C_2  and  C_8
REMARK    3  A    between atoms: C_3  and  C_4
REMARK    4  A    between atoms: C_4  and  C_5
REMARK                            x       y       z     vdW  Elec       q    Type
REMARK                         _______ _______ _______ _____ _____    ______ ____
ROOT
ATOM      1  C   UNL     1       1.275   5.107 -10.856  0.00  0.00    +0.002 C 
ATOM      2  C   UNL     1       2.052   5.036  -9.462  0.00  0.00    +0.028 C 
ATOM      3  C   UNL     1       1.087   6.019  -8.644  0.00  0.00    +0.002 C 
ATOM      4  C   UNL     1       1.674   5.572  -7.144  0.00  0.00    +0.000 C 
ATOM      5  C   UNL     1       3.144   6.411  -7.208  0.00  0.00    +0.003 C 
ATOM      6  C   UNL     1       3.918   5.296  -8.101  0.00  0.00    +0.033 C 
ATOM      7  C   UNL     1       3.462   5.848  -5.740  0.00  0.00    +0.000 C 
ATOM      8  C   UNL     1       3.023   7.122  -4.825  0.00  0.00    +0.003 C 
ATOM      9  C   UNL     1       2.828   6.200  -3.491  0.00  0.00    +0.033 C 
ATOM     10  C   UNL     1       4.364   6.113  -2.916  0.00  0.00    +0.152 C 
ATOM     11  C   UNL     1       4.822   5.007  -4.048  0.00  0.00    +0.033 C 
ATOM     12  O   UNL     1       3.974   5.016  -1.933  0.00  0.00    -0.223 OA
ATOM     13  C   UNL     1       1.428   7.040  -5.123  0.00  0.00    +0.000 C 
ATOM     14  C   UNL     1       2.779   4.642  -5.350  0.00  0.00    +0.000 C 
ATOM     15  C   UNL     1       4.866   5.770  -5.378  0.00  0.00    +0.003 C 
ATOM     16  C   UNL     1       1.074   6.923  -6.504  0.00  0.00    +0.000 C 
ATOM     17  C   UNL     1      -0.018   4.834  -8.720  0.00  0.00    +0.000 C 
ATOM     18  C   UNL     1       2.293   3.751  -8.995  0.00  0.00    +0.003 C 
ATOM     19  C   UNL     1       3.368   5.969  -9.528  0.00  0.00    +0.152 C 
ATOM     20  O   UNL     1       4.092   4.951 -10.391  0.00  0.00    -0.223 OA
ATOM     21  C   UNL     1      -0.071   4.519 -10.166  0.00  0.00    +0.000 C 
ENDROOT
BRANCH   1  23
ATOM     22  C   UNL     1      -0.620   6.512 -11.394  0.00  0.00    +0.000 C 
ATOM     23  C   UNL     1       0.801   6.734 -10.651  0.00  0.00    +0.001 C 
BRANCH  23  24
ATOM     24  C   UNL     1       1.555   7.200 -12.004  0.00  0.00    +0.012 C 
BRANCH  24  25
ATOM     25  C   UNL     1       0.526   7.504 -13.027  0.00  0.00    +0.114 C 
BRANCH  25  26
ATOM     26  C   UNL     1       1.052   7.323 -14.406  0.00  0.00    +0.365 C 
ATOM     27  O   UNL     1       1.250   6.082 -14.970  0.00  0.00    -0.246 OA
ATOM     28  O   UNL     1       0.913   8.371 -15.105  0.00  0.00    -0.246 OA
ENDBRANCH  25  26
ENDBRANCH  24  25
ENDBRANCH  23  24
ENDBRANCH   1  23
TORSDOF 4
ENDMDL
MODEL 8
REMARK VINA RESULT:      -8.1      2.781      7.654
REMARK  Name = 
REMARK  4 active torsions:
REMARK  status: ('A' for Active; 'I' for Inactive)
REMARK    1  A    between atoms: C_2  and  C_3
REMARK    2  A    between atoms: C_2  and  C_8
REMARK    3  A    between atoms: C_3  and  C_4
REMARK    4  A    between atoms: C_4  and  C_5
REMARK                            x       y       z     vdW  Elec       q    Type
REMARK                         _______ _______ _______ _____ _____    ______ ____
ROOT
ATOM      1  C   UNL     1       1.430   5.565  -6.909  0.00  0.00    +0.002 C 
ATOM      2  C   UNL     1       2.369   5.870  -8.165  0.00  0.00    +0.028 C 
ATOM      3  C   UNL     1       3.670   5.103  -7.633  0.00  0.00    +0.002 C 
ATOM      4  C   UNL     1       4.435   5.083  -9.120  0.00  0.00    +0.000 C 
ATOM      5  C   UNL     1       4.913   6.708  -9.160  0.00  0.00    +0.003 C 
ATOM      6  C   UNL     1       3.472   7.278  -9.648  0.00  0.00    +0.033 C 
ATOM      7  C   UNL     1       5.584   6.414 -10.587  0.00  0.00    +0.000 C 
ATOM      8  C   UNL     1       7.138   6.193 -10.152  0.00  0.00    +0.003 C 
ATOM      9  C   UNL     1       7.483   5.354 -11.509  0.00  0.00    +0.033 C 
ATOM     10  C   UNL     1       7.789   6.560 -12.581  0.00  0.00    +0.152 C 
ATOM     11  C   UNL     1       6.191   6.912 -12.779  0.00  0.00    +0.033 C 
ATOM     12  O   UNL     1       7.765   5.580 -13.748  0.00  0.00    -0.223 OA
ATOM     13  C   UNL     1       6.919   4.804  -9.339  0.00  0.00    +0.000 C 
ATOM     14  C   UNL     1       5.065   5.293 -11.325  0.00  0.00    +0.000 C 
ATOM     15  C   UNL     1       5.745   7.562 -11.462  0.00  0.00    +0.003 C 
ATOM     16  C   UNL     1       5.847   4.815  -8.392  0.00  0.00    +0.000 C 
ATOM     17  C   UNL     1       2.842   3.731  -7.885  0.00  0.00    +0.000 C 
ATOM     18  C   UNL     1       1.819   5.537  -9.396  0.00  0.00    +0.003 C 
ATOM     19  C   UNL     1       2.914   7.387  -8.077  0.00  0.00    +0.152 C 
ATOM     20  O   UNL     1       1.563   7.937  -8.500  0.00  0.00    -0.223 OA
ATOM     21  C   UNL     1       1.576   3.967  -7.154  0.00  0.00    +0.000 C 
ENDROOT
BRANCH   1  23
ATOM     22  C   UNL     1       1.890   4.779  -4.667  0.00  0.00    +0.000 C 
ATOM     23  C   UNL     1       2.711   5.620  -5.781  0.00  0.00    +0.001 C 
BRANCH  23  24
ATOM     24  C   UNL     1       2.235   7.054  -5.202  0.00  0.00    +0.012 C 
BRANCH  24  25
ATOM     25  C   UNL     1       2.578   7.107  -3.760  0.00  0.00    +0.114 C 
BRANCH  25  26
ATOM     26  C   UNL     1       3.899   7.752  -3.534  0.00  0.00    +0.365 C 
ATOM     27  O   UNL     1       4.777   8.029  -4.559  0.00  0.00    -0.246 OA
ATOM     28  O   UNL     1       3.945   8.354  -2.420  0.00  0.00    -0.246 OA
ENDBRANCH  25  26
ENDBRANCH  24  25
ENDBRANCH  23  24
ENDBRANCH   1  23
TORSDOF 4
ENDMDL
MODEL 9
REMARK VINA RESULT:      -7.7      4.050      7.207
REMARK  Name = 
REMARK  4 active torsions:
REMARK  status: ('A' for Active; 'I' for Inactive)
REMARK    1  A    between atoms: C_2  and  C_3
REMARK    2  A    between atoms: C_2  and  C_8
REMARK    3  A    between atoms: C_3  and  C_4
REMARK    4  A    between atoms: C_4  and  C_5
REMARK                            x       y       z     vdW  Elec       q    Type
REMARK                         _______ _______ _______ _____ _____    ______ ____
ROOT
ATOM      1  C   UNL     1       3.124   5.909  -0.647  0.00  0.00    +0.002 C 
ATOM      2  C   UNL     1       2.313   5.740  -2.013  0.00  0.00    +0.028 C 
ATOM      3  C   UNL     1       3.439   6.330  -2.988  0.00  0.00    +0.002 C 
ATOM      4  C   UNL     1       2.734   5.741  -4.385  0.00  0.00    +0.000 C 
ATOM      5  C   UNL     1       1.471   6.863  -4.502  0.00  0.00    +0.003 C 
ATOM      6  C   UNL     1       0.507   6.121  -3.424  0.00  0.00    +0.033 C 
ATOM      7  C   UNL     1       1.007   6.112  -5.841  0.00  0.00    +0.000 C 
ATOM      8  C   UNL     1       1.675   7.072  -6.974  0.00  0.00    +0.003 C 
ATOM      9  C   UNL     1       1.641   5.896  -8.106  0.00  0.00    +0.033 C 
ATOM     10  C   UNL     1       0.106   6.023  -8.676  0.00  0.00    +0.152 C 
ATOM     11  C   UNL     1      -0.541   5.268  -7.362  0.00  0.00    +0.033 C 
ATOM     12  O   UNL     1       0.236   4.704  -9.428  0.00  0.00    -0.223 OA
ATOM     13  C   UNL     1       3.226   6.719  -6.643  0.00  0.00    +0.000 C 
ATOM     14  C   UNL     1       1.416   4.740  -5.985  0.00  0.00    +0.000 C 
ATOM     15  C   UNL     1      -0.393   6.261  -6.201  0.00  0.00    +0.003 C 
ATOM     16  C   UNL     1       3.584   6.793  -5.260  0.00  0.00    +0.000 C 
ATOM     17  C   UNL     1       4.278   4.978  -2.674  0.00  0.00    +0.000 C 
ATOM     18  C   UNL     1       1.801   4.468  -2.231  0.00  0.00    +0.003 C 
ATOM     19  C   UNL     1       1.221   6.921  -2.143  0.00  0.00    +0.152 C 
ATOM     20  O   UNL     1       0.325   6.255  -1.113  0.00  0.00    -0.223 OA
ATOM     21  C   UNL     1       4.302   4.936  -1.193  0.00  0.00    +0.000 C 
ENDROOT
BRANCH   1  23
ATOM     22  C   UNL     1       5.086   7.188  -0.037  0.00  0.00    +0.000 C 
ATOM     23  C   UNL     1       3.918   7.335  -1.149  0.00  0.00    +0.001 C 
BRANCH  23  24
ATOM     24  C   UNL     1       2.992   8.268  -0.206  0.00  0.00    +0.012 C 
BRANCH  24  25
ATOM     25  C   UNL     1       3.393   9.681  -0.417  0.00  0.00    +0.114 C 
BRANCH  25  26
ATOM     26  C   UNL     1       2.631  10.604   0.465  0.00  0.00    +0.365 C 
ATOM     27  O   UNL     1       1.347  10.340   0.887  0.00  0.00    -0.246 OA
ATOM     28  O   UNL     1       3.396  11.407   1.079  0.00  0.00    -0.246 OA
ENDBRANCH  25  26
ENDBRANCH  24  25
ENDBRANCH  23  24
ENDBRANCH   1  23
TORSDOF 4
ENDMDL
