MODEL 1
REMARK VINA RESULT:     -10.3      0.000      0.000
REMARK  Name = 
REMARK  5 active torsions:
REMARK  status: ('A' for Active; 'I' for Inactive)
REMARK    1  A    between atoms: O_2  and  C_3
REMARK    2  A    between atoms: C_6  and  N_7
REMARK    3  A    between atoms: C_9  and  C_10
REMARK    4  A    between atoms: N_17  and  C_18
REMARK    5  A    between atoms: C_21  and  N_22
REMARK                            x       y       z     vdW  Elec       q    Type
REMARK                         _______ _______ _______ _____ _____    ______ ____
ROOT
ATOM      1  N   UNL     1       3.277   6.306 -12.153  0.00  0.00    -0.225 N 
ATOM      2  C   UNL     1       2.266   6.002 -11.306  0.00  0.00    +0.134 A 
ATOM      3  C   UNL     1       2.145   5.910  -9.846  0.00  0.00    +0.270 C 
ATOM      4  N   UNL     1       1.068   5.211  -9.217  0.00  0.00    -0.254 N 
ATOM      5  C   UNL     1       0.335   4.285 -10.076  0.00  0.00    +0.103 C 
ATOM      6  C   UNL     1      -0.024   5.022 -11.360  0.00  0.00    +0.052 C 
ATOM      7  O   UNL     1       3.010   6.444  -9.120  0.00  0.00    -0.268 OA
ATOM      8  C   UNL     1       1.169   5.578 -12.034  0.00  0.00    +0.026 A 
ATOM      9  C   UNL     1       1.518   5.814 -13.356  0.00  0.00    +0.155 A 
ATOM     10  N   UNL     1       2.769   6.335 -13.367  0.00  0.00    -0.161 NA
ENDROOT
BRANCH   1  14
ATOM     11  C   UNL     1       7.299   6.535 -11.316  0.00  0.00    +0.139 A 
ATOM     12  C   UNL     1       6.699   5.287 -11.268  0.00  0.00    +0.038 A 
ATOM     13  C   UNL     1       5.321   5.170 -11.377  0.00  0.00    +0.022 A 
ATOM     14  C   UNL     1       4.634   6.310 -11.724  0.00  0.00    +0.083 A 
ATOM     15  C   UNL     1       5.156   7.510 -11.261  0.00  0.00    +0.022 A 
ATOM     16  C   UNL     1       6.517   7.653 -11.092  0.00  0.00    +0.038 A 
BRANCH  11  18
ATOM     17  C   UNL     1       9.390   5.884 -12.309  0.00  0.00    +0.252 C 
ATOM     18  O   UNL     1       8.683   6.676 -11.386  0.00  0.00    -0.471 OA
ENDBRANCH  11  18
ENDBRANCH   1  14
BRANCH   4  19
ATOM     19  C   UNL     1       0.471   5.798  -8.055  0.00  0.00    +0.054 A 
ATOM     20  C   UNL     1       1.198   6.341  -7.028  0.00  0.00    +0.016 A 
ATOM     21  C   UNL     1       0.505   6.844  -5.934  0.00  0.00    +0.016 A 
ATOM     22  C   UNL     1      -0.587   6.129  -5.521  0.00  0.00    +0.054 A 
ATOM     23  C   UNL     1      -1.293   5.389  -6.450  0.00  0.00    +0.016 A 
ATOM     24  C   UNL     1      -0.809   5.351  -7.752  0.00  0.00    +0.016 A 
BRANCH  22  25
ATOM     25  N   UNL     1      -1.119   6.216  -4.218  0.00  0.00    -0.259 N 
ATOM     26  C   UNL     1      -0.523   5.551  -3.097  0.00  0.00    +0.229 C 
ATOM     27  O   UNL     1       0.620   5.015  -3.221  0.00  0.00    -0.275 OA
ATOM     28  C   UNL     1      -1.059   5.962  -1.761  0.00  0.00    +0.086 C 
ATOM     29  C   UNL     1      -2.563   5.945  -1.738  0.00  0.00    +0.011 C 
ATOM     30  C   UNL     1      -3.175   6.491  -3.008  0.00  0.00    +0.022 C 
ATOM     31  C   UNL     1      -2.145   7.198  -3.875  0.00  0.00    +0.098 C 
ENDBRANCH  22  25
ENDBRANCH   4  19
BRANCH   9  32
ATOM     32  C   UNL     1       0.747   5.292 -14.470  0.00  0.00    +0.303 C 
ATOM     33  O   UNL     1       0.460   5.986 -15.467  0.00  0.00    -0.265 OA
ATOM     34  N   UNL     1       0.733   3.873 -14.632  0.00  0.00    -0.082 NA
ENDBRANCH   9  32
TORSDOF 5
ENDMDL
MODEL 2
REMARK VINA RESULT:     -10.2      3.283      9.721
REMARK  Name = 
REMARK  5 active torsions:
REMARK  status: ('A' for Active; 'I' for Inactive)
REMARK    1  A    between atoms: O_2  and  C_3
REMARK    2  A    between atoms: C_6  and  N_7
REMARK    3  A    between atoms: C_9  and  C_10
REMARK    4  A    between atoms: N_17  and  C_18
REMARK    5  A    between atoms: C_21  and  N_22
REMARK                            x       y       z     vdW  Elec       q    Type
REMARK                         _______ _______ _______ _____ _____    ______ ____
ROOT
ATOM      1  N   UNL     1       1.567   5.564  -2.879  0.00  0.00    -0.225 N 
ATOM      2  C   UNL     1       1.589   5.778  -4.215  0.00  0.00    +0.134 A 
ATOM      3  C   UNL     1       2.641   6.111  -5.183  0.00  0.00    +0.270 C 
ATOM      4  N   UNL     1       2.343   6.645  -6.474  0.00  0.00    -0.254 N 
ATOM      5  C   UNL     1       1.000   7.199  -6.628  0.00  0.00    +0.103 C 
ATOM      6  C   UNL     1       0.007   6.173  -6.099  0.00  0.00    +0.052 C 
ATOM      7  O   UNL     1       3.839   5.936  -4.875  0.00  0.00    -0.268 OA
ATOM      8  C   UNL     1       0.293   5.794  -4.699  0.00  0.00    +0.026 A 
ATOM      9  C   UNL     1      -0.485   5.402  -3.618  0.00  0.00    +0.155 A 
ATOM     10  N   UNL     1       0.342   5.192  -2.566  0.00  0.00    -0.161 NA
ENDROOT
BRANCH   1  14
ATOM     11  C   UNL     1       4.474   6.476  -0.113  0.00  0.00    +0.139 A 
ATOM     12  C   UNL     1       3.913   7.521  -0.829  0.00  0.00    +0.038 A 
ATOM     13  C   UNL     1       3.052   7.261  -1.886  0.00  0.00    +0.022 A 
ATOM     14  C   UNL     1       2.650   5.955  -2.043  0.00  0.00    +0.083 A 
ATOM     15  C   UNL     1       3.573   4.980  -1.692  0.00  0.00    +0.022 A 
ATOM     16  C   UNL     1       4.478   5.215  -0.680  0.00  0.00    +0.038 A 
BRANCH  11  18
ATOM     17  C   UNL     1       4.729   7.675   1.955  0.00  0.00    +0.252 C 
ATOM     18  O   UNL     1       5.198   6.700   1.056  0.00  0.00    -0.471 OA
ENDBRANCH  11  18
ENDBRANCH   1  14
BRANCH   4  19
ATOM     19  C   UNL     1       3.094   6.164  -7.594  0.00  0.00    +0.054 A 
ATOM     20  C   UNL     1       4.242   5.426  -7.468  0.00  0.00    +0.016 A 
ATOM     21  C   UNL     1       4.906   5.051  -8.630  0.00  0.00    +0.016 A 
ATOM     22  C   UNL     1       4.952   5.980  -9.634  0.00  0.00    +0.054 A 
ATOM     23  C   UNL     1       3.927   6.900  -9.744  0.00  0.00    +0.016 A 
ATOM     24  C   UNL     1       2.932   6.880  -8.774  0.00  0.00    +0.016 A 
BRANCH  22  25
ATOM     25  N   UNL     1       5.923   5.963 -10.658  0.00  0.00    -0.259 N 
ATOM     26  C   UNL     1       5.670   5.395 -11.949  0.00  0.00    +0.229 C 
ATOM     27  O   UNL     1       4.489   5.058 -12.265  0.00  0.00    -0.275 OA
ATOM     28  C   UNL     1       6.706   5.698 -12.986  0.00  0.00    +0.086 C 
ATOM     29  C   UNL     1       8.096   5.430 -12.474  0.00  0.00    +0.011 C 
ATOM     30  C   UNL     1       8.291   5.880 -11.044  0.00  0.00    +0.022 C 
ATOM     31  C   UNL     1       7.145   6.758 -10.565  0.00  0.00    +0.098 C 
ENDBRANCH  22  25
ENDBRANCH   4  19
BRANCH   9  32
ATOM     32  C   UNL     1      -1.933   5.514  -3.620  0.00  0.00    +0.303 C 
ATOM     33  O   UNL     1      -2.666   4.698  -3.024  0.00  0.00    -0.265 OA
ATOM     34  N   UNL     1      -2.477   6.805  -3.896  0.00  0.00    -0.082 NA
ENDBRANCH   9  32
TORSDOF 5
ENDMDL
MODEL 3
REMARK VINA RESULT:      -9.7      2.884      3.667
REMARK  Name = 
REMARK  5 active torsions:
REMARK  status: ('A' for Active; 'I' for Inactive)
REMARK    1  A    between atoms: O_2  and  C_3
REMARK    2  A    between atoms: C_6  and  N_7
REMARK    3  A    between atoms: C_9  and  C_10
REMARK    4  A    between atoms: N_17  and  C_18
REMARK    5  A    between atoms: C_21  and  N_22
REMARK                            x       y       z     vdW  Elec       q    Type
REMARK                         _______ _______ _______ _____ _____    ______ ____
ROOT
ATOM      1  N   UNL     1       3.513   6.436 -11.080  0.00  0.00    -0.225 N 
ATOM      2  C   UNL     1       3.201   6.053  -9.820  0.00  0.00    +0.134 A 
ATOM      3  C   UNL     1       3.987   5.738  -8.621  0.00  0.00    +0.270 C 
ATOM      4  N   UNL     1       3.436   5.002  -7.526  0.00  0.00    -0.254 N 
ATOM      5  C   UNL     1       2.214   4.260  -7.820  0.00  0.00    +0.103 C 
ATOM      6  C   UNL     1       1.249   5.207  -8.524  0.00  0.00    +0.052 C 
ATOM      7  O   UNL     1       5.177   6.109  -8.549  0.00  0.00    -0.268 OA
ATOM      8  C   UNL     1       1.843   5.802  -9.740  0.00  0.00    +0.026 A 
ATOM      9  C   UNL     1       1.339   6.226 -10.961  0.00  0.00    +0.155 A 
ATOM     10  N   UNL     1       2.378   6.681 -11.702  0.00  0.00    -0.161 NA
ENDROOT
BRANCH   1  14
ATOM     11  C   UNL     1       7.349   5.648 -12.344  0.00  0.00    +0.139 A 
ATOM     12  C   UNL     1       7.118   6.847 -11.688  0.00  0.00    +0.038 A 
ATOM     13  C   UNL     1       5.822   7.240 -11.387  0.00  0.00    +0.022 A 
ATOM     14  C   UNL     1       4.834   6.306 -11.594  0.00  0.00    +0.083 A 
ATOM     15  C   UNL     1       5.025   5.431 -12.655  0.00  0.00    +0.022 A 
ATOM     16  C   UNL     1       6.299   5.052 -13.018  0.00  0.00    +0.038 A 
BRANCH  11  18
ATOM     17  C   UNL     1       9.726   5.971 -12.181  0.00  0.00    +0.252 C 
ATOM     18  O   UNL     1       8.637   5.142 -12.504  0.00  0.00    -0.471 OA
ENDBRANCH  11  18
ENDBRANCH   1  14
BRANCH   4  19
ATOM     19  C   UNL     1       3.761   5.427  -6.197  0.00  0.00    +0.054 A 
ATOM     20  C   UNL     1       3.830   4.570  -5.129  0.00  0.00    +0.016 A 
ATOM     21  C   UNL     1       4.115   5.108  -3.880  0.00  0.00    +0.016 A 
ATOM     22  C   UNL     1       3.534   6.312  -3.586  0.00  0.00    +0.054 A 
ATOM     23  C   UNL     1       3.248   7.187  -4.617  0.00  0.00    +0.016 A 
ATOM     24  C   UNL     1       3.500   6.762  -5.917  0.00  0.00    +0.016 A 
BRANCH  22  25
ATOM     25  N   UNL     1       3.337   6.773  -2.268  0.00  0.00    -0.259 N 
ATOM     26  C   UNL     1       2.103   6.588  -1.564  0.00  0.00    +0.229 C 
ATOM     27  O   UNL     1       1.212   5.828  -2.051  0.00  0.00    -0.275 OA
ATOM     28  C   UNL     1       2.157   6.901  -0.101  0.00  0.00    +0.086 C 
ATOM     29  C   UNL     1       2.800   8.237   0.156  0.00  0.00    +0.011 C 
ATOM     30  C   UNL     1       4.002   8.488  -0.725  0.00  0.00    +0.022 C 
ATOM     31  C   UNL     1       4.454   7.225  -1.442  0.00  0.00    +0.098 C 
ENDBRANCH  22  25
ENDBRANCH   4  19
BRANCH   9  32
ATOM     32  C   UNL     1      -0.014   5.924 -11.392  0.00  0.00    +0.303 C 
ATOM     33  O   UNL     1      -0.453   4.757 -11.444  0.00  0.00    -0.265 OA
ATOM     34  N   UNL     1      -0.970   6.982 -11.295  0.00  0.00    -0.082 NA
ENDBRANCH   9  32
TORSDOF 5
ENDMDL
MODEL 4
REMARK VINA RESULT:      -9.4      3.038      9.463
REMARK  Name = 
REMARK  5 active torsions:
REMARK  status: ('A' for Active; 'I' for Inactive)
REMARK    1  A    between atoms: O_2  and  C_3
REMARK    2  A    between atoms: C_6  and  N_7
REMARK    3  A    between atoms: C_9  and  C_10
REMARK    4  A    between atoms: N_17  and  C_18
REMARK    5  A    between atoms: C_21  and  N_22
REMARK                            x       y       z     vdW  Elec       q    Type
REMARK                         _______ _______ _______ _____ _____    ______ ____
ROOT
ATOM      1  N   UNL     1       0.892   5.405  -2.216  0.00  0.00    -0.225 N 
ATOM      2  C   UNL     1       0.809   5.781  -3.513  0.00  0.00    +0.134 A 
ATOM      3  C   UNL     1       1.786   6.218  -4.518  0.00  0.00    +0.270 C 
ATOM      4  N   UNL     1       1.394   6.911  -5.705  0.00  0.00    -0.254 N 
ATOM      5  C   UNL     1       0.056   7.496  -5.677  0.00  0.00    +0.103 C 
ATOM      6  C   UNL     1      -0.913   6.424  -5.195  0.00  0.00    +0.052 C 
ATOM      7  O   UNL     1       3.001   5.992  -4.336  0.00  0.00    -0.268 OA
ATOM      8  C   UNL     1      -0.521   5.872  -3.881  0.00  0.00    +0.026 A 
ATOM      9  C   UNL     1      -1.217   5.360  -2.794  0.00  0.00    +0.155 A 
ATOM     10  N   UNL     1      -0.310   5.012  -1.849  0.00  0.00    -0.161 NA
ENDROOT
BRANCH   1  14
ATOM     11  C   UNL     1       4.292   6.575  -0.215  0.00  0.00    +0.139 A 
ATOM     12  C   UNL     1       4.264   5.296  -0.748  0.00  0.00    +0.038 A 
ATOM     13  C   UNL     1       3.090   4.790  -1.287  0.00  0.00    +0.022 A 
ATOM     14  C   UNL     1       2.049   5.677  -1.433  0.00  0.00    +0.083 A 
ATOM     15  C   UNL     1       1.954   6.679  -0.477  0.00  0.00    +0.022 A 
ATOM     16  C   UNL     1       3.093   7.177   0.118  0.00  0.00    +0.038 A 
BRANCH  11  18
ATOM     17  C   UNL     1       5.542   7.811   1.426  0.00  0.00    +0.252 C 
ATOM     18  O   UNL     1       5.488   7.177   0.171  0.00  0.00    -0.471 OA
ENDBRANCH  11  18
ENDBRANCH   1  14
BRANCH   4  19
ATOM     19  C   UNL     1       2.041   6.563  -6.935  0.00  0.00    +0.054 A 
ATOM     20  C   UNL     1       2.651   7.480  -7.750  0.00  0.00    +0.016 A 
ATOM     21  C   UNL     1       3.209   7.025  -8.939  0.00  0.00    +0.016 A 
ATOM     22  C   UNL     1       2.508   6.064  -9.615  0.00  0.00    +0.054 A 
ATOM     23  C   UNL     1       1.708   5.192  -8.901  0.00  0.00    +0.016 A 
ATOM     24  C   UNL     1       1.599   5.387  -7.529  0.00  0.00    +0.016 A 
BRANCH  22  25
ATOM     25  N   UNL     1       2.665   5.819 -10.995  0.00  0.00    -0.259 N 
ATOM     26  C   UNL     1       3.941   5.552 -11.589  0.00  0.00    +0.229 C 
ATOM     27  O   UNL     1       4.947   5.341 -10.845  0.00  0.00    -0.275 OA
ATOM     28  C   UNL     1       3.890   5.060 -13.002  0.00  0.00    +0.086 C 
ATOM     29  C   UNL     1       2.999   5.920 -13.856  0.00  0.00    +0.011 C 
ATOM     30  C   UNL     1       1.732   6.339 -13.145  0.00  0.00    +0.022 C 
ATOM     31  C   UNL     1       1.518   5.555 -11.860  0.00  0.00    +0.098 C 
ENDBRANCH  22  25
ENDBRANCH   4  19
BRANCH   9  32
ATOM     32  C   UNL     1      -2.657   5.488  -2.661  0.00  0.00    +0.303 C 
ATOM     33  O   UNL     1      -3.188   6.437  -2.048  0.00  0.00    -0.265 OA
ATOM     34  N   UNL     1      -3.455   4.801  -3.626  0.00  0.00    -0.082 NA
ENDBRANCH   9  32
TORSDOF 5
ENDMDL
MODEL 5
REMARK VINA RESULT:      -9.4      2.806      9.455
REMARK  Name = 
REMARK  5 active torsions:
REMARK  status: ('A' for Active; 'I' for Inactive)
REMARK    1  A    between atoms: O_2  and  C_3
REMARK    2  A    between atoms: C_6  and  N_7
REMARK    3  A    between atoms: C_9  and  C_10
REMARK    4  A    between atoms: N_17  and  C_18
REMARK    5  A    between atoms: C_21  and  N_22
REMARK                            x       y       z     vdW  Elec       q    Type
REMARK                         _______ _______ _______ _____ _____    ______ ____
ROOT
ATOM      1  N   UNL     1       1.479   6.732  -5.482  0.00  0.00    -0.225 N 
ATOM      2  C   UNL     1       1.986   6.231  -6.632  0.00  0.00    +0.134 A 
ATOM      3  C   UNL     1       1.397   5.742  -7.885  0.00  0.00    +0.270 C 
ATOM      4  N   UNL     1       2.130   4.923  -8.799  0.00  0.00    -0.254 N 
ATOM      5  C   UNL     1       3.326   4.288  -8.251  0.00  0.00    +0.103 C 
ATOM      6  C   UNL     1       4.139   5.359  -7.535  0.00  0.00    +0.052 C 
ATOM      7  O   UNL     1       0.216   6.034  -8.166  0.00  0.00    -0.268 OA
ATOM      8  C   UNL     1       3.351   6.050  -6.492  0.00  0.00    +0.026 A 
ATOM      9  C   UNL     1       3.654   6.633  -5.270  0.00  0.00    +0.155 A 
ATOM     10  N   UNL     1       2.501   7.107  -4.740  0.00  0.00    -0.161 NA
ENDROOT
BRANCH   1  14
ATOM     11  C   UNL     1      -2.385   6.479  -4.090  0.00  0.00    +0.139 A 
ATOM     12  C   UNL     1      -1.807   5.329  -4.605  0.00  0.00    +0.038 A 
ATOM     13  C   UNL     1      -0.573   5.391  -5.237  0.00  0.00    +0.022 A 
ATOM     14  C   UNL     1       0.104   6.584  -5.146  0.00  0.00    +0.083 A 
ATOM     15  C   UNL     1      -0.674   7.734  -5.111  0.00  0.00    +0.022 A 
ATOM     16  C   UNL     1      -1.925   7.705  -4.535  0.00  0.00    +0.038 A 
BRANCH  11  18
ATOM     17  C   UNL     1      -3.406   6.686  -1.923  0.00  0.00    +0.252 C 
ATOM     18  O   UNL     1      -3.531   6.427  -3.300  0.00  0.00    -0.471 OA
ENDBRANCH  11  18
ENDBRANCH   1  14
BRANCH   4  19
ATOM     19  C   UNL     1       1.986   5.180 -10.200  0.00  0.00    +0.054 A 
ATOM     20  C   UNL     1       2.838   5.986 -10.909  0.00  0.00    +0.016 A 
ATOM     21  C   UNL     1       2.571   6.191 -12.257  0.00  0.00    +0.016 A 
ATOM     22  C   UNL     1       1.255   6.337 -12.603  0.00  0.00    +0.054 A 
ATOM     23  C   UNL     1       0.288   5.711 -11.840  0.00  0.00    +0.016 A 
ATOM     24  C   UNL     1       0.702   5.021 -10.707  0.00  0.00    +0.016 A 
BRANCH  22  25
ATOM     25  N   UNL     1       0.834   6.980 -13.786  0.00  0.00    -0.259 N 
ATOM     26  C   UNL     1       0.564   6.263 -14.997  0.00  0.00    +0.229 C 
ATOM     27  O   UNL     1       0.516   4.995 -14.978  0.00  0.00    -0.275 OA
ATOM     28  C   UNL     1      -0.120   7.060 -16.064  0.00  0.00    +0.086 C 
ATOM     29  C   UNL     1       0.562   8.383 -16.289  0.00  0.00    +0.011 C 
ATOM     30  C   UNL     1       0.998   9.044 -15.001  0.00  0.00    +0.022 C 
ATOM     31  C   UNL     1       0.386   8.370 -13.783  0.00  0.00    +0.098 C 
ENDBRANCH  22  25
ENDBRANCH   4  19
BRANCH   9  32
ATOM     32  C   UNL     1       4.941   6.458  -4.621  0.00  0.00    +0.303 C 
ATOM     33  O   UNL     1       5.685   7.421  -4.343  0.00  0.00    -0.265 OA
ATOM     34  N   UNL     1       5.129   5.249  -3.884  0.00  0.00    -0.082 NA
ENDBRANCH   9  32
TORSDOF 5
ENDMDL
MODEL 6
REMARK VINA RESULT:      -9.3      1.752      4.871
REMARK  Name = 
REMARK  5 active torsions:
REMARK  status: ('A' for Active; 'I' for Inactive)
REMARK    1  A    between atoms: O_2  and  C_3
REMARK    2  A    between atoms: C_6  and  N_7
REMARK    3  A    between atoms: C_9  and  C_10
REMARK    4  A    between atoms: N_17  and  C_18
REMARK    5  A    between atoms: C_21  and  N_22
REMARK                            x       y       z     vdW  Elec       q    Type
REMARK                         _______ _______ _______ _____ _____    ______ ____
ROOT
ATOM      1  N   UNL     1       3.025   5.508 -12.626  0.00  0.00    -0.225 N 
ATOM      2  C   UNL     1       3.005   5.746 -11.294  0.00  0.00    +0.134 A 
ATOM      3  C   UNL     1       1.950   6.070 -10.326  0.00  0.00    +0.270 C 
ATOM      4  N   UNL     1       2.243   6.635  -9.046  0.00  0.00    -0.254 N 
ATOM      5  C   UNL     1       3.572   7.225  -8.910  0.00  0.00    +0.103 C 
ATOM      6  C   UNL     1       4.588   6.214  -9.427  0.00  0.00    +0.052 C 
ATOM      7  O   UNL     1       0.756   5.860 -10.623  0.00  0.00    -0.268 OA
ATOM      8  C   UNL     1       4.303   5.802 -10.818  0.00  0.00    +0.026 A 
ATOM      9  C   UNL     1       5.085   5.410 -11.897  0.00  0.00    +0.155 A 
ATOM     10  N   UNL     1       4.256   5.161 -12.939  0.00  0.00    -0.161 NA
ENDROOT
BRANCH   1  14
ATOM     11  C   UNL     1       0.087   6.311 -15.394  0.00  0.00    +0.139 A 
ATOM     12  C   UNL     1       0.600   7.374 -14.668  0.00  0.00    +0.038 A 
ATOM     13  C   UNL     1       1.468   7.144 -13.610  0.00  0.00    +0.022 A 
ATOM     14  C   UNL     1       1.928   5.857 -13.462  0.00  0.00    +0.083 A 
ATOM     15  C   UNL     1       1.050   4.844 -13.823  0.00  0.00    +0.022 A 
ATOM     16  C   UNL     1       0.138   5.046 -14.836  0.00  0.00    +0.038 A 
BRANCH  11  18
ATOM     17  C   UNL     1      -0.516   7.746 -17.226  0.00  0.00    +0.252 C 
ATOM     18  O   UNL     1      -0.642   6.511 -16.563  0.00  0.00    -0.471 OA
ENDBRANCH  11  18
ENDBRANCH   1  14
BRANCH   4  19
ATOM     19  C   UNL     1       1.510   6.156  -7.913  0.00  0.00    +0.054 A 
ATOM     20  C   UNL     1       0.207   5.735  -7.983  0.00  0.00    +0.016 A 
ATOM     21  C   UNL     1      -0.410   5.330  -6.806  0.00  0.00    +0.016 A 
ATOM     22  C   UNL     1      -0.124   6.059  -5.684  0.00  0.00    +0.054 A 
ATOM     23  C   UNL     1       1.104   6.685  -5.587  0.00  0.00    +0.016 A 
ATOM     24  C   UNL     1       1.962   6.603  -6.678  0.00  0.00    +0.016 A 
BRANCH  22  25
ATOM     25  N   UNL     1      -0.961   6.092  -4.549  0.00  0.00    -0.259 N 
ATOM     26  C   UNL     1      -2.232   6.755  -4.550  0.00  0.00    +0.229 C 
ATOM     27  O   UNL     1      -2.721   7.172  -5.644  0.00  0.00    -0.275 OA
ATOM     28  C   UNL     1      -3.095   6.468  -3.361  0.00  0.00    +0.086 C 
ATOM     29  C   UNL     1      -2.334   6.630  -2.073  0.00  0.00    +0.011 C 
ATOM     30  C   UNL     1      -0.929   6.079  -2.149  0.00  0.00    +0.022 C 
ATOM     31  C   UNL     1      -0.718   5.232  -3.394  0.00  0.00    +0.098 C 
ENDBRANCH  22  25
ENDBRANCH   4  19
BRANCH   9  32
ATOM     32  C   UNL     1       6.529   5.558 -11.905  0.00  0.00    +0.303 C 
ATOM     33  O   UNL     1       7.284   4.702 -12.411  0.00  0.00    -0.265 OA
ATOM     34  N   UNL     1       7.040   6.885 -11.767  0.00  0.00    -0.082 NA
ENDBRANCH   9  32
TORSDOF 5
ENDMDL
MODEL 7
REMARK VINA RESULT:      -8.7      2.065      2.702
REMARK  Name = 
REMARK  5 active torsions:
REMARK  status: ('A' for Active; 'I' for Inactive)
REMARK    1  A    between atoms: O_2  and  C_3
REMARK    2  A    between atoms: C_6  and  N_7
REMARK    3  A    between atoms: C_9  and  C_10
REMARK    4  A    between atoms: N_17  and  C_18
REMARK    5  A    between atoms: C_21  and  N_22
REMARK                            x       y       z     vdW  Elec       q    Type
REMARK                         _______ _______ _______ _____ _____    ______ ____
ROOT
ATOM      1  N   UNL     1       3.712   6.372 -12.174  0.00  0.00    -0.225 N 
ATOM      2  C   UNL     1       2.957   5.931 -11.141  0.00  0.00    +0.134 A 
ATOM      3  C   UNL     1       3.228   5.626  -9.730  0.00  0.00    +0.270 C 
ATOM      4  N   UNL     1       2.344   4.824  -8.944  0.00  0.00    -0.254 N 
ATOM      5  C   UNL     1       1.390   4.018  -9.700  0.00  0.00    +0.103 C 
ATOM      6  C   UNL     1       0.716   4.925 -10.722  0.00  0.00    +0.052 C 
ATOM      7  O   UNL     1       4.266   6.067  -9.193  0.00  0.00    -0.268 OA
ATOM      8  C   UNL     1       1.697   5.594 -11.603  0.00  0.00    +0.026 A 
ATOM      9  C   UNL     1       1.686   6.025 -12.922  0.00  0.00    +0.155 A 
ATOM     10  N   UNL     1       2.898   6.566 -13.192  0.00  0.00    -0.161 NA
ENDROOT
BRANCH   1  14
ATOM     11  C   UNL     1       7.780   5.878 -11.798  0.00  0.00    +0.139 A 
ATOM     12  C   UNL     1       7.231   7.076 -11.368  0.00  0.00    +0.038 A 
ATOM     13  C   UNL     1       5.898   7.365 -11.620  0.00  0.00    +0.022 A 
ATOM     14  C   UNL     1       5.133   6.340 -12.127  0.00  0.00    +0.083 A 
ATOM     15  C   UNL     1       5.782   5.445 -12.967  0.00  0.00    +0.022 A 
ATOM     16  C   UNL     1       7.119   5.166 -12.782  0.00  0.00    +0.038 A 
BRANCH  11  18
ATOM     17  C   UNL     1      10.156   5.946 -12.159  0.00  0.00    +0.252 C 
ATOM     18  O   UNL     1       9.058   5.482 -11.412  0.00  0.00    -0.471 OA
ENDBRANCH  11  18
ENDBRANCH   1  14
BRANCH   4  19
ATOM     19  C   UNL     1       2.091   5.225  -7.593  0.00  0.00    +0.054 A 
ATOM     20  C   UNL     1       1.954   6.534  -7.210  0.00  0.00    +0.016 A 
ATOM     21  C   UNL     1       1.750   6.800  -5.861  0.00  0.00    +0.016 A 
ATOM     22  C   UNL     1       2.458   6.035  -4.974  0.00  0.00    +0.054 A 
ATOM     23  C   UNL     1       2.812   4.749  -5.333  0.00  0.00    +0.016 A 
ATOM     24  C   UNL     1       2.493   4.322  -6.617  0.00  0.00    +0.016 A 
BRANCH  22  25
ATOM     25  N   UNL     1       2.726   6.438  -3.649  0.00  0.00    -0.259 N 
ATOM     26  C   UNL     1       1.794   6.236  -2.580  0.00  0.00    +0.229 C 
ATOM     27  O   UNL     1       0.770   5.512  -2.769  0.00  0.00    -0.275 OA
ATOM     28  C   UNL     1       2.344   6.480  -1.209  0.00  0.00    +0.086 C 
ATOM     29  C   UNL     1       3.072   7.794  -1.130  0.00  0.00    +0.011 C 
ATOM     30  C   UNL     1       3.917   8.070  -2.352  0.00  0.00    +0.022 C 
ATOM     31  C   UNL     1       4.067   6.836  -3.228  0.00  0.00    +0.098 C 
ENDBRANCH  22  25
ENDBRANCH   4  19
BRANCH   9  32
ATOM     32  C   UNL     1       0.634   5.655 -13.853  0.00  0.00    +0.303 C 
ATOM     33  O   UNL     1       0.133   6.471 -14.652  0.00  0.00    -0.265 OA
ATOM     34  N   UNL     1       0.520   4.267 -14.173  0.00  0.00    -0.082 NA
ENDBRANCH   9  32
TORSDOF 5
ENDMDL
MODEL 8
REMARK VINA RESULT:      -8.5      5.054     12.341
REMARK  Name = 
REMARK  5 active torsions:
REMARK  status: ('A' for Active; 'I' for Inactive)
REMARK    1  A    between atoms: O_2  and  C_3
REMARK    2  A    between atoms: C_6  and  N_7
REMARK    3  A    between atoms: C_9  and  C_10
REMARK    4  A    between atoms: N_17  and  C_18
REMARK    5  A    between atoms: C_21  and  N_22
REMARK                            x       y       z     vdW  Elec       q    Type
REMARK                         _______ _______ _______ _____ _____    ______ ____
ROOT
ATOM      1  N   UNL     1       2.249   8.214   1.470  0.00  0.00    -0.225 N 
ATOM      2  C   UNL     1       2.689   7.583   0.357  0.00  0.00    +0.134 A 
ATOM      3  C   UNL     1       2.042   7.087  -0.864  0.00  0.00    +0.270 C 
ATOM      4  N   UNL     1       2.670   6.130  -1.720  0.00  0.00    -0.254 N 
ATOM      5  C   UNL     1       3.785   5.395  -1.128  0.00  0.00    +0.103 C 
ATOM      6  C   UNL     1       4.721   6.407  -0.479  0.00  0.00    +0.052 C 
ATOM      7  O   UNL     1       0.903   7.498  -1.168  0.00  0.00    -0.268 OA
ATOM      8  C   UNL     1       4.024   7.252   0.513  0.00  0.00    +0.026 A 
ATOM      9  C   UNL     1       4.398   7.874   1.697  0.00  0.00    +0.155 A 
ATOM     10  N   UNL     1       3.310   8.513   2.190  0.00  0.00    -0.161 NA
ENDROOT
BRANCH   1  14
ATOM     11  C   UNL     1      -1.797   7.951   2.170  0.00  0.00    +0.139 A 
ATOM     12  C   UNL     1      -1.296   9.164   1.726  0.00  0.00    +0.038 A 
ATOM     13  C   UNL     1       0.075   9.361   1.633  0.00  0.00    +0.022 A 
ATOM     14  C   UNL     1       0.868   8.251   1.809  0.00  0.00    +0.083 A 
ATOM     15  C   UNL     1       0.401   7.296   2.702  0.00  0.00    +0.022 A 
ATOM     16  C   UNL     1      -0.954   7.101   2.862  0.00  0.00    +0.038 A 
BRANCH  11  18
ATOM     17  C   UNL     1      -3.876   7.568   3.316  0.00  0.00    +0.252 C 
ATOM     18  O   UNL     1      -3.158   7.660   2.110  0.00  0.00    -0.471 OA
ENDBRANCH  11  18
ENDBRANCH   1  14
BRANCH   4  19
ATOM     19  C   UNL     1       2.552   6.311  -3.136  0.00  0.00    +0.054 A 
ATOM     20  C   UNL     1       1.967   5.390  -3.965  0.00  0.00    +0.016 A 
ATOM     21  C   UNL     1       1.948   5.661  -5.328  0.00  0.00    +0.016 A 
ATOM     22  C   UNL     1       3.071   6.242  -5.851  0.00  0.00    +0.054 A 
ATOM     23  C   UNL     1       3.845   7.053  -5.042  0.00  0.00    +0.016 A 
ATOM     24  C   UNL     1       3.479   7.174  -3.707  0.00  0.00    +0.016 A 
BRANCH  22  25
ATOM     25  N   UNL     1       3.411   6.176  -7.219  0.00  0.00    -0.259 N 
ATOM     26  C   UNL     1       2.876   7.084  -8.190  0.00  0.00    +0.229 C 
ATOM     27  O   UNL     1       2.221   8.100  -7.804  0.00  0.00    -0.275 OA
ATOM     28  C   UNL     1       3.539   7.038  -9.531  0.00  0.00    +0.086 C 
ATOM     29  C   UNL     1       3.668   5.626 -10.037  0.00  0.00    +0.011 C 
ATOM     30  C   UNL     1       4.065   4.650  -8.953  0.00  0.00    +0.022 C 
ATOM     31  C   UNL     1       4.527   5.360  -7.691  0.00  0.00    +0.098 C 
ENDBRANCH  22  25
ENDBRANCH   4  19
BRANCH   9  32
ATOM     32  C   UNL     1       5.658   7.590   2.360  0.00  0.00    +0.303 C 
ATOM     33  O   UNL     1       6.625   8.378   2.321  0.00  0.00    -0.265 OA
ATOM     34  N   UNL     1       5.620   6.651   3.435  0.00  0.00    -0.082 NA
ENDBRANCH   9  32
TORSDOF 5
ENDMDL
MODEL 9
REMARK VINA RESULT:      -8.3      3.195     10.349
REMARK  Name = 
REMARK  5 active torsions:
REMARK  status: ('A' for Active; 'I' for Inactive)
REMARK    1  A    between atoms: O_2  and  C_3
REMARK    2  A    between atoms: C_6  and  N_7
REMARK    3  A    between atoms: C_9  and  C_10
REMARK    4  A    between atoms: N_17  and  C_18
REMARK    5  A    between atoms: C_21  and  N_22
REMARK                            x       y       z     vdW  Elec       q    Type
REMARK                         _______ _______ _______ _____ _____    ______ ____
ROOT
ATOM      1  N   UNL     1       1.532   6.395  -3.211  0.00  0.00    -0.225 N 
ATOM      2  C   UNL     1       2.533   6.058  -4.056  0.00  0.00    +0.134 A 
ATOM      3  C   UNL     1       2.646   5.935  -5.514  0.00  0.00    +0.270 C 
ATOM      4  N   UNL     1       3.707   5.205  -6.134  0.00  0.00    -0.254 N 
ATOM      5  C   UNL     1       4.428   4.284  -5.260  0.00  0.00    +0.103 C 
ATOM      6  C   UNL     1       4.806   5.040  -3.993  0.00  0.00    +0.052 C 
ATOM      7  O   UNL     1       1.787   6.470  -6.246  0.00  0.00    -0.268 OA
ATOM      8  C   UNL     1       3.626   5.628  -3.325  0.00  0.00    +0.026 A 
ATOM      9  C   UNL     1       3.287   5.896  -2.005  0.00  0.00    +0.155 A 
ATOM     10  N   UNL     1       2.046   6.439  -1.999  0.00  0.00    -0.161 NA
ENDROOT
BRANCH   1  14
ATOM     11  C   UNL     1      -2.294   6.073  -4.692  0.00  0.00    +0.139 A 
ATOM     12  C   UNL     1      -1.643   7.287  -4.841  0.00  0.00    +0.038 A 
ATOM     13  C   UNL     1      -0.422   7.507  -4.220  0.00  0.00    +0.022 A 
ATOM     14  C   UNL     1       0.173   6.414  -3.633  0.00  0.00    +0.083 A 
ATOM     15  C   UNL     1      -0.681   5.466  -3.087  0.00  0.00    +0.022 A 
ATOM     16  C   UNL     1      -1.923   5.250  -3.644  0.00  0.00    +0.038 A 
BRANCH  11  18
ATOM     17  C   UNL     1      -3.316   5.726  -6.840  0.00  0.00    +0.252 C 
ATOM     18  O   UNL     1      -3.427   5.757  -5.438  0.00  0.00    -0.471 OA
ENDBRANCH  11  18
ENDBRANCH   1  14
BRANCH   4  19
ATOM     19  C   UNL     1       4.309   5.758  -7.310  0.00  0.00    +0.054 A 
ATOM     20  C   UNL     1       3.587   6.195  -8.390  0.00  0.00    +0.016 A 
ATOM     21  C   UNL     1       4.287   6.675  -9.490  0.00  0.00    +0.016 A 
ATOM     22  C   UNL     1       5.433   6.005  -9.825  0.00  0.00    +0.054 A 
ATOM     23  C   UNL     1       6.149   5.366  -8.832  0.00  0.00    +0.016 A 
ATOM     24  C   UNL     1       5.623   5.374  -7.545  0.00  0.00    +0.016 A 
BRANCH  22  25
ATOM     25  N   UNL     1       6.005   6.049 -11.114  0.00  0.00    -0.259 N 
ATOM     26  C   UNL     1       5.355   5.491 -12.263  0.00  0.00    +0.229 C 
ATOM     27  O   UNL     1       4.149   5.107 -12.177  0.00  0.00    -0.275 OA
ATOM     28  C   UNL     1       5.973   5.856 -13.577  0.00  0.00    +0.086 C 
ATOM     29  C   UNL     1       7.462   5.642 -13.567  0.00  0.00    +0.011 C 
ATOM     30  C   UNL     1       8.108   6.077 -12.271  0.00  0.00    +0.022 C 
ATOM     31  C   UNL     1       7.157   6.895 -11.410  0.00  0.00    +0.098 C 
ENDBRANCH  22  25
ENDBRANCH   4  19
BRANCH   9  32
ATOM     32  C   UNL     1       4.055   5.383  -0.885  0.00  0.00    +0.303 C 
ATOM     33  O   UNL     1       4.399   6.104   0.074  0.00  0.00    -0.265 OA
ATOM     34  N   UNL     1       3.998   3.974  -0.660  0.00  0.00    -0.082 NA
ENDBRANCH   9  32
TORSDOF 5
ENDMDL
