MODEL 1
REMARK VINA RESULT:      -8.3      0.000      0.000
REMARK  Name = 
REMARK  5 active torsions:
REMARK  status: ('A' for Active; 'I' for Inactive)
REMARK    1  A    between atoms: O_2  and  C_3
REMARK    2  A    between atoms: C_8  and  C_9
REMARK    3  A    between atoms: C_9  and  C_12
REMARK    4  A    between atoms: N_28  and  C_29
REMARK    5  A    between atoms: C_29  and  C_30
REMARK                            x       y       z     vdW  Elec       q    Type
REMARK                         _______ _______ _______ _____ _____    ______ ____
ROOT
ATOM      1  C   UNL     1       2.155   6.381  -8.508  0.00  0.00    +0.132 C 
ATOM      2  C   UNL     1       1.960   7.626  -7.452  0.00  0.00    +0.194 C 
ATOM      3  O   UNL     1       3.376   7.472  -6.873  0.00  0.00    -0.474 OA
ATOM      4  C   UNL     1       3.408   6.535  -5.943  0.00  0.00    +0.173 A 
ATOM      5  C   UNL     1       2.226   6.499  -5.292  0.00  0.00    +0.014 A 
ATOM      6  C   UNL     1       1.836   5.383  -4.543  0.00  0.00    -0.022 A 
ATOM      7  C   UNL     1       2.899   4.764  -3.885  0.00  0.00    -0.001 A 
ATOM      8  C   UNL     1       4.220   5.100  -4.182  0.00  0.00    +0.045 A 
ATOM      9  C   UNL     1       0.449   5.157  -4.328  0.00  0.00    +0.042 C 
ATOM     10  C   UNL     1      -0.402   4.946  -5.715  0.00  0.00    +0.062 C 
ATOM     11  N   UNL     1      -1.219   6.281  -5.566  0.00  0.00    -0.274 NA
ATOM     12  C   UNL     1      -0.560   7.192  -4.714  0.00  0.00    +0.073 C 
ATOM     13  C   UNL     1       0.402   7.874  -5.653  0.00  0.00    +0.025 C 
ATOM     14  C   UNL     1       0.662   5.591  -6.763  0.00  0.00    +0.021 C 
ATOM     15  C   UNL     1      -0.035   5.452  -8.059  0.00  0.00    +0.007 C 
ATOM     16  C   UNL     1       1.740   4.521  -6.969  0.00  0.00    +0.004 C 
ATOM     17  C   UNL     1       4.431   5.775  -5.382  0.00  0.00    +0.229 A 
ATOM     18  O   UNL     1       5.601   5.595  -6.132  0.00  0.00    -0.283 OA
ATOM     19  C   UNL     1       1.191   6.787  -6.286  0.00  0.00    +0.063 C 
ATOM     20  C   UNL     1       0.671   6.412  -9.172  0.00  0.00    +0.056 C 
ATOM     21  C   UNL     1       2.568   5.162  -8.033  0.00  0.00    +0.031 C 
ENDROOT
BRANCH  20  22
ATOM     22  C   UNL     1       0.957   5.233 -10.254  0.00  0.00    +0.129 C 
ATOM     23  O   UNL     1       2.270   4.918 -10.302  0.00  0.00    -0.226 OA
ATOM     24  C   UNL     1       0.069   4.094 -10.148  0.00  0.00    +0.033 C 
BRANCH  22  25
ATOM     25  C   UNL     1       0.696   5.862 -11.626  0.00  0.00    +0.026 C 
ATOM     26  C   UNL     1      -0.125   4.814 -12.373  0.00  0.00    +0.002 C 
ATOM     27  C   UNL     1       1.962   6.121 -12.384  0.00  0.00    +0.002 C 
ATOM     28  C   UNL     1      -0.102   7.113 -11.401  0.00  0.00    +0.002 C 
ENDBRANCH  22  25
ENDBRANCH  20  22
BRANCH   1  30
ATOM     29  C   UNL     1       3.567   7.193  -9.429  0.00  0.00    +0.174 C 
ATOM     30  O   UNL     1       3.030   7.020  -9.388  0.00  0.00    -0.352 OA
ENDBRANCH   1  30
BRANCH  11  31
ATOM     31  C   UNL     1      -2.429   5.838  -4.943  0.00  0.00    +0.072 C 
BRANCH  31  32
ATOM     32  C   UNL     1      -2.641   6.498  -3.617  0.00  0.00    +0.016 C 
ATOM     33  C   UNL     1      -2.686   5.672  -2.348  0.00  0.00    +0.001 C 
ATOM     34  C   UNL     1      -3.968   6.047  -2.962  0.00  0.00    +0.001 C 
ENDBRANCH  31  32
ENDBRANCH  11  31
TORSDOF 5
ENDMDL
MODEL 2
REMARK VINA RESULT:      -7.9      2.071      5.794
REMARK  Name = 
REMARK  5 active torsions:
REMARK  status: ('A' for Active; 'I' for Inactive)
REMARK    1  A    between atoms: O_2  and  C_3
REMARK    2  A    between atoms: C_8  and  C_9
REMARK    3  A    between atoms: C_9  and  C_12
REMARK    4  A    between atoms: N_28  and  C_29
REMARK    5  A    between atoms: C_29  and  C_30
REMARK                            x       y       z     vdW  Elec       q    Type
REMARK                         _______ _______ _______ _____ _____    ______ ____
ROOT
ATOM      1  C   UNL     1       3.878   5.513  -4.563  0.00  0.00    +0.132 C 
ATOM      2  C   UNL     1       3.049   4.290  -5.282  0.00  0.00    +0.194 C 
ATOM      3  O   UNL     1       3.981   4.259  -6.505  0.00  0.00    -0.474 OA
ATOM      4  C   UNL     1       3.630   5.174  -7.391  0.00  0.00    +0.173 A 
ATOM      5  C   UNL     1       2.291   5.350  -7.359  0.00  0.00    +0.014 A 
ATOM      6  C   UNL     1       1.691   6.496  -7.890  0.00  0.00    -0.022 A 
ATOM      7  C   UNL     1       2.327   6.970  -9.036  0.00  0.00    -0.001 A 
ATOM      8  C   UNL     1       3.574   6.475  -9.421  0.00  0.00    +0.045 A 
ATOM      9  C   UNL     1       0.418   6.891  -7.393  0.00  0.00    +0.042 C 
ATOM     10  C   UNL     1       0.418   7.223  -5.787  0.00  0.00    +0.062 C 
ATOM     11  N   UNL     1      -0.493   5.998  -5.404  0.00  0.00    -0.274 NA
ATOM     12  C   UNL     1      -0.455   5.003  -6.403  0.00  0.00    +0.073 C 
ATOM     13  C   UNL     1       0.776   4.217  -6.029  0.00  0.00    +0.025 C 
ATOM     14  C   UNL     1       1.794   6.463  -5.372  0.00  0.00    +0.021 C 
ATOM     15  C   UNL     1       1.872   6.703  -3.916  0.00  0.00    +0.007 C 
ATOM     16  C   UNL     1       2.929   7.392  -5.816  0.00  0.00    +0.004 C 
ATOM     17  C   UNL     1       4.297   5.794  -8.444  0.00  0.00    +0.229 A 
ATOM     18  O   UNL     1       5.696   5.835  -8.401  0.00  0.00    -0.283 OA
ATOM     19  C   UNL     1       1.883   5.204  -5.961  0.00  0.00    +0.063 C 
ATOM     20  C   UNL     1       2.944   5.676  -3.242  0.00  0.00    +0.056 C 
ATOM     21  C   UNL     1       4.114   6.666  -5.270  0.00  0.00    +0.031 C 
ENDROOT
BRANCH  20  22
ATOM     22  C   UNL     1       3.859   6.823  -2.542  0.00  0.00    +0.129 C 
ATOM     23  O   UNL     1       5.148   6.731  -2.935  0.00  0.00    -0.226 OA
ATOM     24  C   UNL     1       3.303   8.158  -2.611  0.00  0.00    +0.033 C 
BRANCH  22  25
ATOM     25  C   UNL     1       3.916   6.452  -1.056  0.00  0.00    +0.026 C 
ATOM     26  C   UNL     1       2.634   7.038  -0.471  0.00  0.00    +0.002 C 
ATOM     27  C   UNL     1       5.093   7.065  -0.362  0.00  0.00    +0.002 C 
ATOM     28  C   UNL     1       3.915   4.954  -0.967  0.00  0.00    +0.002 C 
ENDBRANCH  22  25
ENDBRANCH  20  22
BRANCH   1  30
ATOM     29  C   UNL     1       5.187   4.249  -4.127  0.00  0.00    +0.174 C 
ATOM     30  O   UNL     1       5.009   4.781  -4.199  0.00  0.00    -0.352 OA
ENDBRANCH   1  30
BRANCH  11  31
ATOM     31  C   UNL     1      -1.799   6.582  -5.365  0.00  0.00    +0.072 C 
BRANCH  31  32
ATOM     32  C   UNL     1      -2.044   7.300  -4.075  0.00  0.00    +0.016 C 
ATOM     33  C   UNL     1      -1.689   6.648  -2.755  0.00  0.00    +0.001 C 
ATOM     34  C   UNL     1      -3.087   6.562  -3.202  0.00  0.00    +0.001 C 
ENDBRANCH  31  32
ENDBRANCH  11  31
TORSDOF 5
ENDMDL
MODEL 3
REMARK VINA RESULT:      -7.9      2.649      7.294
REMARK  Name = 
REMARK  5 active torsions:
REMARK  status: ('A' for Active; 'I' for Inactive)
REMARK    1  A    between atoms: O_2  and  C_3
REMARK    2  A    between atoms: C_8  and  C_9
REMARK    3  A    between atoms: C_9  and  C_12
REMARK    4  A    between atoms: N_28  and  C_29
REMARK    5  A    between atoms: C_29  and  C_30
REMARK                            x       y       z     vdW  Elec       q    Type
REMARK                         _______ _______ _______ _____ _____    ______ ____
ROOT
ATOM      1  C   UNL     1       2.278   6.425  -6.063  0.00  0.00    +0.132 C 
ATOM      2  C   UNL     1       2.338   7.540  -7.269  0.00  0.00    +0.194 C 
ATOM      3  O   UNL     1       0.895   7.259  -7.720  0.00  0.00    -0.474 OA
ATOM      4  C   UNL     1       0.846   6.216  -8.529  0.00  0.00    +0.173 A 
ATOM      5  C   UNL     1       1.982   6.150  -9.256  0.00  0.00    +0.014 A 
ATOM      6  C   UNL     1       2.374   4.969  -9.896  0.00  0.00    -0.022 A 
ATOM      7  C   UNL     1       1.302   4.232 -10.396  0.00  0.00    -0.001 A 
ATOM      8  C   UNL     1      -0.011   4.547 -10.044  0.00  0.00    +0.045 A 
ATOM      9  C   UNL     1       3.753   4.776 -10.184  0.00  0.00    +0.042 C 
ATOM     10  C   UNL     1       4.706   4.769  -8.849  0.00  0.00    +0.062 C 
ATOM     11  N   UNL     1       5.444   6.109  -9.213  0.00  0.00    -0.274 NA
ATOM     12  C   UNL     1       4.685   6.882 -10.115  0.00  0.00    +0.073 C 
ATOM     13  C   UNL     1       3.755   7.633  -9.195  0.00  0.00    +0.025 C 
ATOM     14  C   UNL     1       3.686   5.492  -7.808  0.00  0.00    +0.021 C 
ATOM     15  C   UNL     1       4.475   5.539  -6.560  0.00  0.00    +0.007 C 
ATOM     16  C   UNL     1       2.679   4.411  -7.399  0.00  0.00    +0.004 C 
ATOM     17  C   UNL     1      -0.173   5.352  -8.919  0.00  0.00    +0.229 A 
ATOM     18  O   UNL     1      -1.279   5.216  -8.069  0.00  0.00    -0.283 OA
ATOM     19  C   UNL     1       3.066   6.599  -8.382  0.00  0.00    +0.063 C 
ATOM     20  C   UNL     1       3.800   6.596  -5.518  0.00  0.00    +0.056 C 
ATOM     21  C   UNL     1       1.894   5.141  -6.359  0.00  0.00    +0.031 C 
ENDROOT
BRANCH  20  22
ATOM     22  C   UNL     1       3.647   5.546  -4.287  0.00  0.00    +0.129 C 
ATOM     23  O   UNL     1       2.349   5.283  -4.024  0.00  0.00    -0.226 OA
ATOM     24  C   UNL     1       4.489   4.372  -4.393  0.00  0.00    +0.033 C 
BRANCH  22  25
ATOM     25  C   UNL     1       4.112   6.305  -3.040  0.00  0.00    +0.026 C 
ATOM     26  C   UNL     1       4.654   5.217  -2.115  0.00  0.00    +0.002 C 
ATOM     27  C   UNL     1       2.985   7.012  -2.351  0.00  0.00    +0.002 C 
ATOM     28  C   UNL     1       5.202   7.243  -3.466  0.00  0.00    +0.002 C 
ENDBRANCH  22  25
ENDBRANCH  20  22
BRANCH   1  30
ATOM     29  C   UNL     1       0.890   7.267  -5.132  0.00  0.00    +0.174 C 
ATOM     30  O   UNL     1       1.434   7.128  -5.202  0.00  0.00    -0.352 OA
ENDBRANCH   1  30
BRANCH  11  31
ATOM     31  C   UNL     1       6.630   5.644  -9.867  0.00  0.00    +0.072 C 
BRANCH  31  32
ATOM     32  C   UNL     1       6.850   6.341 -11.172  0.00  0.00    +0.016 C 
ATOM     33  C   UNL     1       7.137   5.545 -12.428  0.00  0.00    +0.001 C 
ATOM     34  C   UNL     1       8.284   6.114 -11.705  0.00  0.00    +0.001 C 
ENDBRANCH  31  32
ENDBRANCH  11  31
TORSDOF 5
ENDMDL
MODEL 4
REMARK VINA RESULT:      -7.7      2.448      5.959
REMARK  Name = 
REMARK  5 active torsions:
REMARK  status: ('A' for Active; 'I' for Inactive)
REMARK    1  A    between atoms: O_2  and  C_3
REMARK    2  A    between atoms: C_8  and  C_9
REMARK    3  A    between atoms: C_9  and  C_12
REMARK    4  A    between atoms: N_28  and  C_29
REMARK    5  A    between atoms: C_29  and  C_30
REMARK                            x       y       z     vdW  Elec       q    Type
REMARK                         _______ _______ _______ _____ _____    ______ ____
ROOT
ATOM      1  C   UNL     1       0.721   5.793  -3.415  0.00  0.00    +0.132 C 
ATOM      2  C   UNL     1       1.568   4.473  -3.907  0.00  0.00    +0.194 C 
ATOM      3  O   UNL     1       2.756   4.782  -2.981  0.00  0.00    -0.474 OA
ATOM      4  C   UNL     1       3.574   5.658  -3.536  0.00  0.00    +0.173 A 
ATOM      5  C   UNL     1       3.573   5.496  -4.876  0.00  0.00    +0.014 A 
ATOM      6  C   UNL     1       4.027   6.502  -5.735  0.00  0.00    -0.022 A 
ATOM      7  C   UNL     1       5.107   7.219  -5.221  0.00  0.00    -0.001 A 
ATOM      8  C   UNL     1       5.489   7.083  -3.886  0.00  0.00    +0.045 A 
ATOM      9  C   UNL     1       3.543   6.527  -7.073  0.00  0.00    +0.042 C 
ATOM     10  C   UNL     1       1.916   6.702  -7.176  0.00  0.00    +0.062 C 
ATOM     11  N   UNL     1       1.669   5.263  -7.759  0.00  0.00    -0.274 NA
ATOM     12  C   UNL     1       2.746   4.401  -7.463  0.00  0.00    +0.073 C 
ATOM     13  C   UNL     1       2.397   3.911  -6.080  0.00  0.00    +0.025 C 
ATOM     14  C   UNL     1       1.519   6.270  -5.659  0.00  0.00    +0.021 C 
ATOM     15  C   UNL     1       0.046   6.390  -5.662  0.00  0.00    +0.007 C 
ATOM     16  C   UNL     1       1.844   7.486  -4.784  0.00  0.00    +0.004 C 
ATOM     17  C   UNL     1       4.548   6.515  -3.030  0.00  0.00    +0.229 A 
ATOM     18  O   UNL     1       4.452   6.894  -1.685  0.00  0.00    -0.283 OA
ATOM     19  C   UNL     1       2.208   5.130  -5.254  0.00  0.00    +0.063 C 
ATOM     20  C   UNL     1      -0.576   5.602  -4.378  0.00  0.00    +0.056 C 
ATOM     21  C   UNL     1       1.320   7.026  -3.464  0.00  0.00    +0.031 C 
ENDROOT
BRANCH  20  22
ATOM     22  C   UNL     1      -1.402   6.870  -3.784  0.00  0.00    +0.129 C 
ATOM     23  O   UNL     1      -1.075   7.110  -2.496  0.00  0.00    -0.226 OA
ATOM     24  C   UNL     1      -1.392   8.042  -4.636  0.00  0.00    +0.033 C 
BRANCH  22  25
ATOM     25  C   UNL     1      -2.859   6.407  -3.698  0.00  0.00    +0.026 C 
ATOM     26  C   UNL     1      -3.567   7.173  -4.812  0.00  0.00    +0.002 C 
ATOM     27  C   UNL     1      -3.491   6.761  -2.386  0.00  0.00    +0.002 C 
ATOM     28  C   UNL     1      -2.878   4.930  -3.962  0.00  0.00    +0.002 C 
ENDBRANCH  22  25
ENDBRANCH  20  22
BRANCH   1  30
ATOM     29  C   UNL     1       0.389   4.863  -1.826  0.00  0.00    +0.174 C 
ATOM     30  O   UNL     1       0.381   5.331  -2.143  0.00  0.00    -0.352 OA
ENDBRANCH   1  30
BRANCH  11  31
ATOM     31  C   UNL     1       1.626   5.501  -9.170  0.00  0.00    +0.072 C 
BRANCH  31  32
ATOM     32  C   UNL     1       0.220   5.583  -9.673  0.00  0.00    +0.016 C 
ATOM     33  C   UNL     1      -0.103   5.226 -11.110  0.00  0.00    +0.001 C 
ATOM     34  C   UNL     1       0.074   6.649 -10.785  0.00  0.00    +0.001 C 
ENDBRANCH  31  32
ENDBRANCH  11  31
TORSDOF 5
ENDMDL
MODEL 5
REMARK VINA RESULT:      -7.3      3.351      6.350
REMARK  Name = 
REMARK  5 active torsions:
REMARK  status: ('A' for Active; 'I' for Inactive)
REMARK    1  A    between atoms: O_2  and  C_3
REMARK    2  A    between atoms: C_8  and  C_9
REMARK    3  A    between atoms: C_9  and  C_12
REMARK    4  A    between atoms: N_28  and  C_29
REMARK    5  A    between atoms: C_29  and  C_30
REMARK                            x       y       z     vdW  Elec       q    Type
REMARK                         _______ _______ _______ _____ _____    ______ ____
ROOT
ATOM      1  C   UNL     1       0.771   5.692  -2.804  0.00  0.00    +0.132 C 
ATOM      2  C   UNL     1       1.872   4.472  -2.776  0.00  0.00    +0.194 C 
ATOM      3  O   UNL     1       2.318   4.790  -1.339  0.00  0.00    -0.474 OA
ATOM      4  C   UNL     1       3.217   5.758  -1.326  0.00  0.00    +0.173 A 
ATOM      5  C   UNL     1       3.970   5.697  -2.445  0.00  0.00    +0.014 A 
ATOM      6  C   UNL     1       4.721   6.793  -2.883  0.00  0.00    -0.022 A 
ATOM      7  C   UNL     1       5.264   7.540  -1.838  0.00  0.00    -0.001 A 
ATOM      8  C   UNL     1       4.859   7.330  -0.519  0.00  0.00    +0.045 A 
ATOM      9  C   UNL     1       5.053   6.885  -4.262  0.00  0.00    +0.042 C 
ATOM     10  C   UNL     1       3.742   6.959  -5.247  0.00  0.00    +0.062 C 
ATOM     11  N   UNL     1       3.999   5.553  -5.905  0.00  0.00    -0.274 NA
ATOM     12  C   UNL     1       4.812   4.746  -5.083  0.00  0.00    +0.073 C 
ATOM     13  C   UNL     1       3.810   4.132  -4.139  0.00  0.00    +0.025 C 
ATOM     14  C   UNL     1       2.621   6.388  -4.216  0.00  0.00    +0.021 C 
ATOM     15  C   UNL     1       1.389   6.410  -5.032  0.00  0.00    +0.007 C 
ATOM     16  C   UNL     1       2.291   7.554  -3.277  0.00  0.00    +0.004 C 
ATOM     17  C   UNL     1       3.663   6.638  -0.343  0.00  0.00    +0.229 A 
ATOM     18  O   UNL     1       2.807   6.909   0.732  0.00  0.00    -0.283 OA
ATOM     19  C   UNL     1       3.080   5.270  -3.525  0.00  0.00    +0.063 C 
ATOM     20  C   UNL     1       0.243   5.487  -4.329  0.00  0.00    +0.056 C 
ATOM     21  C   UNL     1       1.175   6.964  -2.481  0.00  0.00    +0.031 C 
ENDROOT
BRANCH  20  22
ATOM     22  C   UNL     1      -0.891   6.650  -4.261  0.00  0.00    +0.129 C 
ATOM     23  O   UNL     1      -1.277   6.886  -2.989  0.00  0.00    -0.226 OA
ATOM     24  C   UNL     1      -0.576   7.839  -5.025  0.00  0.00    +0.033 C 
BRANCH  22  25
ATOM     25  C   UNL     1      -2.142   6.040  -4.902  0.00  0.00    +0.026 C 
ATOM     26  C   UNL     1      -2.951   7.245  -5.375  0.00  0.00    +0.002 C 
ATOM     27  C   UNL     1      -2.961   5.260  -3.919  0.00  0.00    +0.002 C 
ATOM     28  C   UNL     1      -1.690   5.204  -6.063  0.00  0.00    +0.002 C 
ENDBRANCH  22  25
ENDBRANCH  20  22
BRANCH   1  30
ATOM     29  C   UNL     1      -0.273   5.038  -1.396  0.00  0.00    +0.174 C 
ATOM     30  O   UNL     1      -0.166   5.115  -1.946  0.00  0.00    -0.352 OA
ENDBRANCH   1  30
BRANCH  11  31
ATOM     31  C   UNL     1       4.716   5.893  -7.096  0.00  0.00    +0.072 C 
BRANCH  31  32
ATOM     32  C   UNL     1       3.847   5.795  -8.310  0.00  0.00    +0.016 C 
ATOM     33  C   UNL     1       2.731   4.773  -8.375  0.00  0.00    +0.001 C 
ATOM     34  C   UNL     1       4.008   4.429  -9.017  0.00  0.00    +0.001 C 
ENDBRANCH  31  32
ENDBRANCH  11  31
TORSDOF 5
ENDMDL
MODEL 6
REMARK VINA RESULT:      -7.0      2.266      4.783
REMARK  Name = 
REMARK  5 active torsions:
REMARK  status: ('A' for Active; 'I' for Inactive)
REMARK    1  A    between atoms: O_2  and  C_3
REMARK    2  A    between atoms: C_8  and  C_9
REMARK    3  A    between atoms: C_9  and  C_12
REMARK    4  A    between atoms: N_28  and  C_29
REMARK    5  A    between atoms: C_29  and  C_30
REMARK                            x       y       z     vdW  Elec       q    Type
REMARK                         _______ _______ _______ _____ _____    ______ ____
ROOT
ATOM      1  C   UNL     1       2.204   5.082  -8.108  0.00  0.00    +0.132 C 
ATOM      2  C   UNL     1       2.230   3.998  -6.873  0.00  0.00    +0.194 C 
ATOM      3  O   UNL     1       0.699   3.861  -6.846  0.00  0.00    -0.474 OA
ATOM      4  C   UNL     1       0.148   4.830  -6.137  0.00  0.00    +0.173 A 
ATOM      5  C   UNL     1       0.978   5.189  -5.134  0.00  0.00    +0.014 A 
ATOM      6  C   UNL     1       0.844   6.416  -4.476  0.00  0.00    -0.022 A 
ATOM      7  C   UNL     1      -0.483   6.818  -4.326  0.00  0.00    -0.001 A 
ATOM      8  C   UNL     1      -1.512   6.163  -5.004  0.00  0.00    +0.045 A 
ATOM      9  C   UNL     1       1.984   6.974  -3.835  0.00  0.00    +0.042 C 
ATOM     10  C   UNL     1       3.229   7.275  -4.861  0.00  0.00    +0.062 C 
ATOM     11  N   UNL     1       4.172   6.181  -4.239  0.00  0.00    -0.274 NA
ATOM     12  C   UNL     1       3.432   5.208  -3.536  0.00  0.00    +0.073 C 
ATOM     13  C   UNL     1       3.032   4.253  -4.632  0.00  0.00    +0.025 C 
ATOM     14  C   UNL     1       2.770   6.325  -6.099  0.00  0.00    +0.021 C 
ATOM     15  C   UNL     1       3.855   6.526  -7.082  0.00  0.00    +0.007 C 
ATOM     16  C   UNL     1       1.661   7.096  -6.823  0.00  0.00    +0.004 C 
ATOM     17  C   UNL     1      -1.134   5.371  -6.085  0.00  0.00    +0.229 A 
ATOM     18  O   UNL     1      -1.956   5.218  -7.209  0.00  0.00    -0.283 OA
ATOM     19  C   UNL     1       2.340   5.076  -5.656  0.00  0.00    +0.063 C 
ATOM     20  C   UNL     1       3.806   5.349  -8.209  0.00  0.00    +0.056 C 
ATOM     21  C   UNL     1       1.421   6.204  -7.996  0.00  0.00    +0.031 C 
ENDROOT
BRANCH  20  22
ATOM     22  C   UNL     1       3.719   6.346  -9.490  0.00  0.00    +0.129 C 
ATOM     23  O   UNL     1       2.752   5.959 -10.350  0.00  0.00    -0.226 OA
ATOM     24  C   UNL     1       3.695   7.754  -9.153  0.00  0.00    +0.033 C 
BRANCH  22  25
ATOM     25  C   UNL     1       5.009   6.110 -10.282  0.00  0.00    +0.026 C 
ATOM     26  C   UNL     1       5.403   7.496 -10.785  0.00  0.00    +0.002 C 
ATOM     27  C   UNL     1       4.797   5.207 -11.458  0.00  0.00    +0.002 C 
ATOM     28  C   UNL     1       6.031   5.572  -9.324  0.00  0.00    +0.002 C 
ENDBRANCH  22  25
ENDBRANCH  20  22
BRANCH   1  30
ATOM     29  C   UNL     1       1.431   4.075  -9.482  0.00  0.00    +0.174 C 
ATOM     30  O   UNL     1       1.854   4.195  -9.126  0.00  0.00    -0.352 OA
ENDBRANCH   1  30
BRANCH  11  31
ATOM     31  C   UNL     1       4.959   6.938  -3.313  0.00  0.00    +0.072 C 
BRANCH  31  32
ATOM     32  C   UNL     1       4.485   6.756  -1.906  0.00  0.00    +0.016 C 
ATOM     33  C   UNL     1       4.064   7.951  -1.077  0.00  0.00    +0.001 C 
ATOM     34  C   UNL     1       5.431   7.442  -0.893  0.00  0.00    +0.001 C 
ENDBRANCH  31  32
ENDBRANCH  11  31
TORSDOF 5
ENDMDL
MODEL 7
REMARK VINA RESULT:      -6.1      2.939      6.131
REMARK  Name = 
REMARK  5 active torsions:
REMARK  status: ('A' for Active; 'I' for Inactive)
REMARK    1  A    between atoms: O_2  and  C_3
REMARK    2  A    between atoms: C_8  and  C_9
REMARK    3  A    between atoms: C_9  and  C_12
REMARK    4  A    between atoms: N_28  and  C_29
REMARK    5  A    between atoms: C_29  and  C_30
REMARK                            x       y       z     vdW  Elec       q    Type
REMARK                         _______ _______ _______ _____ _____    ______ ____
ROOT
ATOM      1  C   UNL     1       0.876   5.191 -10.582  0.00  0.00    +0.132 C 
ATOM      2  C   UNL     1       1.636   4.036  -9.694  0.00  0.00    +0.194 C 
ATOM      3  O   UNL     1       0.680   4.200  -8.500  0.00  0.00    -0.474 OA
ATOM      4  C   UNL     1       1.054   5.204  -7.728  0.00  0.00    +0.173 A 
ATOM      5  C   UNL     1       2.400   5.319  -7.750  0.00  0.00    +0.014 A 
ATOM      6  C   UNL     1       3.040   6.498  -7.353  0.00  0.00    -0.022 A 
ATOM      7  C   UNL     1       2.403   7.140  -6.292  0.00  0.00    -0.001 A 
ATOM      8  C   UNL     1       1.128   6.750  -5.878  0.00  0.00    +0.045 A 
ATOM      9  C   UNL     1       4.338   6.774  -7.863  0.00  0.00    +0.042 C 
ATOM     10  C   UNL     1       4.384   6.898  -9.498  0.00  0.00    +0.062 C 
ATOM     11  N   UNL     1       5.247   5.598  -9.700  0.00  0.00    -0.274 NA
ATOM     12  C   UNL     1       5.146   4.740  -8.585  0.00  0.00    +0.073 C 
ATOM     13  C   UNL     1       3.888   3.965  -8.887  0.00  0.00    +0.025 C 
ATOM     14  C   UNL     1       2.984   6.149  -9.848  0.00  0.00    +0.021 C 
ATOM     15  C   UNL     1       2.945   6.205 -11.324  0.00  0.00    +0.007 C 
ATOM     16  C   UNL     1       1.882   7.174  -9.553  0.00  0.00    +0.004 C 
ATOM     17  C   UNL     1       0.395   5.981  -6.779  0.00  0.00    +0.229 A 
ATOM     18  O   UNL     1      -1.000   6.074  -6.862  0.00  0.00    -0.283 OA
ATOM     19  C   UNL     1       2.828   4.980  -9.107  0.00  0.00    +0.063 C 
ATOM     20  C   UNL     1       1.842   5.146 -11.889  0.00  0.00    +0.056 C 
ATOM     21  C   UNL     1       0.678   6.433 -10.032  0.00  0.00    +0.031 C 
ENDROOT
BRANCH  20  22
ATOM     22  C   UNL     1       0.992   6.231 -12.752  0.00  0.00    +0.129 C 
ATOM     23  O   UNL     1      -0.327   6.156 -12.472  0.00  0.00    -0.226 OA
ATOM     24  C   UNL     1       1.537   7.573 -12.729  0.00  0.00    +0.033 C 
BRANCH  22  25
ATOM     25  C   UNL     1       1.072   5.754 -14.205  0.00  0.00    +0.026 C 
ATOM     26  C   UNL     1       2.537   5.948 -14.587  0.00  0.00    +0.002 C 
ATOM     27  C   UNL     1       0.217   6.575 -15.121  0.00  0.00    +0.002 C 
ATOM     28  C   UNL     1       0.698   4.301 -14.221  0.00  0.00    +0.002 C 
ENDBRANCH  22  25
ENDBRANCH  20  22
BRANCH   1  30
ATOM     29  C   UNL     1      -0.483   3.939 -10.876  0.00  0.00    +0.174 C 
ATOM     30  O   UNL     1      -0.279   4.466 -10.878  0.00  0.00    -0.352 OA
ENDBRANCH   1  30
BRANCH  11  31
ATOM     31  C   UNL     1       6.578   6.117  -9.781  0.00  0.00    +0.072 C 
BRANCH  31  32
ATOM     32  C   UNL     1       6.959   6.445 -11.190  0.00  0.00    +0.016 C 
ATOM     33  C   UNL     1       7.077   5.348 -12.228  0.00  0.00    +0.001 C 
ATOM     34  C   UNL     1       8.313   5.806 -11.578  0.00  0.00    +0.001 C 
ENDBRANCH  31  32
ENDBRANCH  11  31
TORSDOF 5
ENDMDL
MODEL 8
REMARK VINA RESULT:      -6.0      3.335      6.233
REMARK  Name = 
REMARK  5 active torsions:
REMARK  status: ('A' for Active; 'I' for Inactive)
REMARK    1  A    between atoms: O_2  and  C_3
REMARK    2  A    between atoms: C_8  and  C_9
REMARK    3  A    between atoms: C_9  and  C_12
REMARK    4  A    between atoms: N_28  and  C_29
REMARK    5  A    between atoms: C_29  and  C_30
REMARK                            x       y       z     vdW  Elec       q    Type
REMARK                         _______ _______ _______ _____ _____    ______ ____
ROOT
ATOM      1  C   UNL     1       4.287   5.595 -11.731  0.00  0.00    +0.132 C 
ATOM      2  C   UNL     1       3.364   4.346 -11.193  0.00  0.00    +0.194 C 
ATOM      3  O   UNL     1       2.213   4.665 -12.162  0.00  0.00    -0.474 OA
ATOM      4  C   UNL     1       1.429   5.608 -11.673  0.00  0.00    +0.173 A 
ATOM      5  C   UNL     1       1.393   5.518 -10.326  0.00  0.00    +0.014 A 
ATOM      6  C   UNL     1       0.972   6.590  -9.532  0.00  0.00    -0.022 A 
ATOM      7  C   UNL     1      -0.058   7.331 -10.108  0.00  0.00    -0.001 A 
ATOM      8  C   UNL     1      -0.418   7.143 -11.444  0.00  0.00    +0.045 A 
ATOM      9  C   UNL     1       1.427   6.660  -8.186  0.00  0.00    +0.042 C 
ATOM     10  C   UNL     1       3.059   6.760  -8.052  0.00  0.00    +0.062 C 
ATOM     11  N   UNL     1       3.219   5.343  -7.390  0.00  0.00    -0.274 NA
ATOM     12  C   UNL     1       2.107   4.521  -7.667  0.00  0.00    +0.073 C 
ATOM     13  C   UNL     1       2.460   3.942  -9.014  0.00  0.00    +0.025 C 
ATOM     14  C   UNL     1       3.466   6.229  -9.535  0.00  0.00    +0.021 C 
ATOM     15  C   UNL     1       4.943   6.276  -9.502  0.00  0.00    +0.007 C 
ATOM     16  C   UNL     1       3.223   7.412 -10.479  0.00  0.00    +0.004 C 
ATOM     17  C   UNL     1       0.511   6.485 -12.246  0.00  0.00    +0.229 A 
ATOM     18  O   UNL     1       0.655   6.788 -13.606  0.00  0.00    -0.283 OA
ATOM     19  C   UNL     1       2.729   5.105  -9.897  0.00  0.00    +0.063 C 
ATOM     20  C   UNL     1       5.552   5.391 -10.728  0.00  0.00    +0.056 C 
ATOM     21  C   UNL     1       3.751   6.858 -11.761  0.00  0.00    +0.031 C 
ENDROOT
BRANCH  20  22
ATOM     22  C   UNL     1       6.454   6.583 -11.366  0.00  0.00    +0.129 C 
ATOM     23  O   UNL     1       6.649   6.398 -12.690  0.00  0.00    -0.226 OA
ATOM     24  C   UNL     1       6.024   7.918 -11.003  0.00  0.00    +0.033 C 
BRANCH  22  25
ATOM     25  C   UNL     1       7.854   6.401 -10.774  0.00  0.00    +0.026 C 
ATOM     26  C   UNL     1       8.741   6.110 -11.982  0.00  0.00    +0.002 C 
ATOM     27  C   UNL     1       7.925   5.241  -9.828  0.00  0.00    +0.002 C 
ATOM     28  C   UNL     1       8.239   7.696 -10.121  0.00  0.00    +0.002 C 
ENDBRANCH  22  25
ENDBRANCH  20  22
BRANCH   1  30
ATOM     29  C   UNL     1       4.409   4.923 -13.473  0.00  0.00    +0.174 C 
ATOM     30  O   UNL     1       4.631   5.050 -12.969  0.00  0.00    -0.352 OA
ENDBRANCH   1  30
BRANCH  11  31
ATOM     31  C   UNL     1       3.244   5.653  -5.993  0.00  0.00    +0.072 C 
BRANCH  31  32
ATOM     32  C   UNL     1       4.567   6.211  -5.574  0.00  0.00    +0.016 C 
ATOM     33  C   UNL     1       4.995   6.164  -4.122  0.00  0.00    +0.001 C 
ATOM     34  C   UNL     1       4.400   7.414  -4.616  0.00  0.00    +0.001 C 
ENDBRANCH  31  32
ENDBRANCH  11  31
TORSDOF 5
ENDMDL
MODEL 9
REMARK VINA RESULT:      -5.8      2.437      6.192
REMARK  Name = 
REMARK  5 active torsions:
REMARK  status: ('A' for Active; 'I' for Inactive)
REMARK    1  A    between atoms: O_2  and  C_3
REMARK    2  A    between atoms: C_8  and  C_9
REMARK    3  A    between atoms: C_9  and  C_12
REMARK    4  A    between atoms: N_28  and  C_29
REMARK    5  A    between atoms: C_29  and  C_30
REMARK                            x       y       z     vdW  Elec       q    Type
REMARK                         _______ _______ _______ _____ _____    ______ ____
ROOT
ATOM      1  C   UNL     1      -0.336   6.566  -4.896  0.00  0.00    +0.132 C 
ATOM      2  C   UNL     1       0.822   7.626  -5.380  0.00  0.00    +0.194 C 
ATOM      3  O   UNL     1       0.619   7.304  -6.870  0.00  0.00    -0.474 OA
ATOM      4  C   UNL     1       1.296   6.225  -7.219  0.00  0.00    +0.173 A 
ATOM      5  C   UNL     1       2.429   6.143  -6.488  0.00  0.00    +0.014 A 
ATOM      6  C   UNL     1       3.132   4.941  -6.361  0.00  0.00    -0.022 A 
ATOM      7  C   UNL     1       3.112   4.166  -7.520  0.00  0.00    -0.001 A 
ATOM      8  C   UNL     1       2.255   4.477  -8.576  0.00  0.00    +0.045 A 
ATOM      9  C   UNL     1       3.964   4.754  -5.223  0.00  0.00    +0.042 C 
ATOM     10  C   UNL     1       3.150   4.822  -3.800  0.00  0.00    +0.062 C 
ATOM     11  N   UNL     1       3.836   6.155  -3.324  0.00  0.00    -0.274 NA
ATOM     12  C   UNL     1       4.364   6.875  -4.416  0.00  0.00    +0.073 C 
ATOM     13  C   UNL     1       3.167   7.653  -4.900  0.00  0.00    +0.025 C 
ATOM     14  C   UNL     1       1.804   5.575  -4.316  0.00  0.00    +0.021 C 
ATOM     15  C   UNL     1       1.003   5.690  -3.079  0.00  0.00    +0.007 C 
ATOM     16  C   UNL     1       0.974   4.500  -5.025  0.00  0.00    +0.004 C 
ATOM     17  C   UNL     1       1.194   5.330  -8.280  0.00  0.00    +0.229 A 
ATOM     18  O   UNL     1      -0.044   5.217  -8.925  0.00  0.00    -0.283 OA
ATOM     19  C   UNL     1       2.105   6.647  -5.153  0.00  0.00    +0.063 C 
ATOM     20  C   UNL     1      -0.188   6.784  -3.292  0.00  0.00    +0.056 C 
ATOM     21  C   UNL     1      -0.272   5.264  -5.327  0.00  0.00    +0.031 C 
ENDROOT
BRANCH  20  22
ATOM     22  C   UNL     1      -1.406   5.788  -2.883  0.00  0.00    +0.129 C 
ATOM     23  O   UNL     1      -2.187   5.504  -3.948  0.00  0.00    -0.226 OA
ATOM     24  C   UNL     1      -1.001   4.632  -2.110  0.00  0.00    +0.033 C 
BRANCH  22  25
ATOM     25  C   UNL     1      -2.328   6.615  -1.981  0.00  0.00    +0.026 C 
ATOM     26  C   UNL     1      -3.712   6.454  -2.604  0.00  0.00    +0.002 C 
ATOM     27  C   UNL     1      -1.963   8.068  -1.975  0.00  0.00    +0.002 C 
ATOM     28  C   UNL     1      -2.278   6.006  -0.611  0.00  0.00    +0.002 C 
ENDBRANCH  22  25
ENDBRANCH  20  22
BRANCH   1  30
ATOM     29  C   UNL     1      -1.663   7.817  -5.315  0.00  0.00    +0.174 C 
ATOM     30  O   UNL     1      -1.446   7.295  -5.326  0.00  0.00    -0.352 OA
ENDBRANCH   1  30
BRANCH  11  31
ATOM     31  C   UNL     1       4.909   5.678  -2.506  0.00  0.00    +0.072 C 
BRANCH  31  32
ATOM     32  C   UNL     1       4.501   5.561  -1.072  0.00  0.00    +0.016 C 
ATOM     33  C   UNL     1       3.480   6.514  -0.485  0.00  0.00    +0.001 C 
ATOM     34  C   UNL     1       4.901   6.816  -0.261  0.00  0.00    +0.001 C 
ENDBRANCH  31  32
ENDBRANCH  11  31
TORSDOF 5
ENDMDL
