MODEL 1
REMARK VINA RESULT:      -0.9      0.000      0.000
REMARK  Name = 
REMARK  10 active torsions:
REMARK  status: ('A' for Active; 'I' for Inactive)
REMARK    1  A    between atoms: C_2  and  C_3
REMARK    2  A    between atoms: C_13  and  C_14
REMARK    3  A    between atoms: C_14  and  C_15
REMARK    4  A    between atoms: C_15  and  O_17
REMARK    5  A    between atoms: C_24  and  C_26
REMARK    6  A    between atoms: C_40  and  O_41
REMARK    7  A    between atoms: C_49  and  C_51
REMARK    8  A    between atoms: C_51  and  O_53
REMARK    9  A    between atoms: C_55  and  O_56
REMARK   10  A    between atoms: O_56  and  C_57
REMARK                            x       y       z     vdW  Elec       q    Type
REMARK                         _______ _______ _______ _____ _____    ______ ____
ROOT
ATOM      1  C   UNL     1      -1.452   5.639  -6.316  0.00  0.00    +0.072 C 
ATOM      2  C   UNL     1      -0.758   5.349  -4.881  0.00  0.00    +0.070 C 
ATOM      3  N   UNL     1      -1.923   5.992  -4.056  0.00  0.00    -0.269 NA
ATOM      4  C   UNL     1      -1.335   6.986  -3.278  0.00  0.00    +0.073 C 
ATOM      5  C   UNL     1      -0.651   7.760  -4.404  0.00  0.00    +0.024 C 
ATOM      6  C   UNL     1      -3.095   6.169  -4.727  0.00  0.00    +0.099 C 
ATOM      7  C   UNL     1      -2.943   7.238  -5.776  0.00  0.00    -0.013 C 
ATOM      8  C   UNL     1       0.205   6.662  -4.854  0.00  0.00    +0.055 C 
ATOM      9  C   UNL     1       0.657   6.888  -6.395  0.00  0.00    +0.127 C 
ATOM     10  C   UNL     1       0.904   5.338  -6.783  0.00  0.00    +0.268 C 
ATOM     11  O   UNL     1       1.747   5.450  -7.902  0.00  0.00    -0.209 OA
ATOM     12  N   UNL     1       2.189   7.108  -6.110  0.00  0.00    -0.250 N 
ATOM     13  C   UNL     1       2.747   7.992  -7.095  0.00  0.00    +0.307 C 
ATOM     14  O   UNL     1       3.983   7.972  -7.281  0.00  0.00    -0.265 OA
ATOM     15  C   UNL     1       2.356   7.239  -4.741  0.00  0.00    +0.053 A 
ATOM     16  C   UNL     1       3.630   7.377  -4.187  0.00  0.00    +0.051 A 
ATOM     17  C   UNL     1       3.811   7.090  -2.842  0.00  0.00    +0.137 A 
ATOM     18  C   UNL     1       2.672   6.930  -2.083  0.00  0.00    +0.026 A 
ATOM     19  C   UNL     1       1.551   6.474  -2.728  0.00  0.00    -0.003 A 
ATOM     20  C   UNL     1       1.396   6.447  -4.111  0.00  0.00    -0.006 A 
ATOM     21  C   UNL     1      -0.534   4.879  -7.410  0.00  0.00    +0.213 C 
ATOM     22  C   UNL     1      -1.926   6.883  -6.583  0.00  0.00    -0.025 C 
ENDROOT
BRANCH  18  23
ATOM     23  C   UNL     1       2.740   7.250  -0.619  0.00  0.00    +0.146 C 
ATOM     24  C   UNL     1       1.377   7.460  -0.120  0.00  0.00    +0.068 A 
ATOM     25  C   UNL     1       1.240   7.574   1.262  0.00  0.00    -0.005 A 
ATOM     26  C   UNL     1      -0.048   7.130   1.553  0.00  0.00    +0.015 A 
ATOM     27  C   UNL     1      -0.637   6.784   0.343  0.00  0.00    +0.081 A 
ATOM     28  C   UNL     1      -2.000   6.527   0.240  0.00  0.00    +0.019 A 
ATOM     29  C   UNL     1      -2.761   6.477   1.384  0.00  0.00    +0.002 A 
ATOM     30  C   UNL     1      -2.189   6.862   2.573  0.00  0.00    +0.000 A 
ATOM     31  C   UNL     1      -0.834   7.105   2.680  0.00  0.00    +0.001 A 
ATOM     32  C   UNL     1       1.910   8.758   1.824  0.00  0.00    +0.045 C 
ATOM     33  C   UNL     1       2.870   8.434   2.963  0.00  0.00    +0.077 C 
ATOM     34  N   UNL     1       4.044   9.316   2.915  0.00  0.00    -0.270 NA
ATOM     35  C   UNL     1       5.284   8.563   3.111  0.00  0.00    +0.103 C 
ATOM     36  C   UNL     1       6.307   8.855   2.024  0.00  0.00    +0.141 C 
ATOM     37  C   UNL     1       5.850   8.393   0.640  0.00  0.00    +0.033 C 
ATOM     38  C   UNL     1       4.294   8.091   1.011  0.00  0.00    +0.020 C 
ATOM     39  O   UNL     1       7.434   8.098   2.352  0.00  0.00    -0.224 OA
ATOM     40  C   UNL     1       4.088   9.646   1.484  0.00  0.00    +0.072 C 
ATOM     41  N   UNL     1       0.192   7.074  -0.661  0.00  0.00    -0.249 NA
ATOM     42  C   UNL     1       3.681   8.390  -0.468  0.00  0.00    +0.022 C 
BRANCH  36  43
ATOM     43  C   UNL     1       6.708  10.309   1.998  0.00  0.00    +0.032 C 
ATOM     44  C   UNL     1       7.775  10.486   3.062  0.00  0.00    +0.003 C 
ENDBRANCH  36  43
BRANCH  23  45
ATOM     45  C   UNL     1       3.396   6.045  -0.010  0.00  0.00    +0.325 C 
ATOM     46  O   UNL     1       4.282   6.295   0.856  0.00  0.00    -0.249 OA
BRANCH  45  47
ATOM     47  O   UNL     1       3.066   4.751  -0.318  0.00  0.00    -0.444 OA
ATOM     48  C   UNL     1       4.052   3.994  -1.014  0.00  0.00    +0.256 C 
ENDBRANCH  45  47
ENDBRANCH  23  45
ENDBRANCH  18  23
BRANCH  17  49
ATOM     49  O   UNL     1       5.025   7.470  -2.262  0.00  0.00    -0.472 OA
ATOM     50  C   UNL     1       6.261   7.225  -2.875  0.00  0.00    +0.252 C 
ENDBRANCH  17  49
BRANCH  10  51
ATOM     51  C   UNL     1       1.434   4.435  -5.897  0.00  0.00    +0.350 C 
ATOM     52  O   UNL     1       0.904   3.269  -5.936  0.00  0.00    -0.247 OA
BRANCH  51  53
ATOM     53  O   UNL     1       2.824   4.227  -5.863  0.00  0.00    -0.443 OA
ATOM     54  C   UNL     1       3.508   3.902  -4.655  0.00  0.00    +0.256 C 
ENDBRANCH  51  53
ENDBRANCH  10  51
BRANCH   1  56
ATOM     55  C   UNL     1      -2.278   3.618  -6.706  0.00  0.00    +0.001 C 
ATOM     56  C   UNL     1      -2.613   4.644  -6.260  0.00  0.00    +0.009 C 
ENDBRANCH   1  56
BRANCH  21  57
ATOM     57  O   UNL     1      -0.554   6.075  -8.389  0.00  0.00    -0.449 OA
BRANCH  57  58
ATOM     58  C   UNL     1      -0.500   5.668  -9.697  0.00  0.00    +0.318 C 
ATOM     59  O   UNL     1      -0.295   4.440  -9.890  0.00  0.00    -0.250 OA
ATOM     60  C   UNL     1      -0.202   6.616 -10.804  0.00  0.00    +0.121 C 
ENDBRANCH  57  58
ENDBRANCH  21  57
TORSDOF 10
ENDMDL
MODEL 2
REMARK VINA RESULT:       0.1      2.100      8.861
REMARK  Name = 
REMARK  10 active torsions:
REMARK  status: ('A' for Active; 'I' for Inactive)
REMARK    1  A    between atoms: C_2  and  C_3
REMARK    2  A    between atoms: C_13  and  C_14
REMARK    3  A    between atoms: C_14  and  C_15
REMARK    4  A    between atoms: C_15  and  O_17
REMARK    5  A    between atoms: C_24  and  C_26
REMARK    6  A    between atoms: C_40  and  O_41
REMARK    7  A    between atoms: C_49  and  C_51
REMARK    8  A    between atoms: C_51  and  O_53
REMARK    9  A    between atoms: C_55  and  O_56
REMARK   10  A    between atoms: O_56  and  C_57
REMARK                            x       y       z     vdW  Elec       q    Type
REMARK                         _______ _______ _______ _____ _____    ______ ____
ROOT
ATOM      1  C   UNL     1       1.486   8.008   0.893  0.00  0.00    +0.072 C 
ATOM      2  C   UNL     1       1.403   8.252  -0.707  0.00  0.00    +0.070 C 
ATOM      3  N   UNL     1      -0.148   8.046  -0.776  0.00  0.00    -0.269 NA
ATOM      4  C   UNL     1      -0.355   7.020  -1.694  0.00  0.00    +0.073 C 
ATOM      5  C   UNL     1       0.549   5.971  -1.047  0.00  0.00    +0.024 C 
ATOM      6  C   UNL     1      -0.808   8.124   0.413  0.00  0.00    +0.099 C 
ATOM      7  C   UNL     1      -0.461   6.945   1.284  0.00  0.00    -0.013 C 
ATOM      8  C   UNL     1       1.790   6.737  -1.162  0.00  0.00    +0.055 C 
ATOM      9  C   UNL     1       2.874   6.230  -0.068  0.00  0.00    +0.127 C 
ATOM     10  C   UNL     1       3.721   7.601   0.057  0.00  0.00    +0.268 C 
ATOM     11  O   UNL     1       4.941   7.143   0.582  0.00  0.00    -0.209 OA
ATOM     12  N   UNL     1       3.908   5.632  -1.093  0.00  0.00    -0.250 N 
ATOM     13  C   UNL     1       4.605   4.528  -0.497  0.00  0.00    +0.307 C 
ATOM     14  O   UNL     1       5.708   4.189  -0.979  0.00  0.00    -0.265 OA
ATOM     15  C   UNL     1       3.309   5.610  -2.343  0.00  0.00    +0.053 A 
ATOM     16  C   UNL     1       4.020   5.191  -3.468  0.00  0.00    +0.051 A 
ATOM     17  C   UNL     1       3.566   5.562  -4.725  0.00  0.00    +0.137 A 
ATOM     18  C   UNL     1       2.303   6.109  -4.792  0.00  0.00    +0.026 A 
ATOM     19  C   UNL     1       1.854   6.781  -3.684  0.00  0.00    -0.003 A 
ATOM     20  C   UNL     1       2.440   6.698  -2.424  0.00  0.00    -0.006 A 
ATOM     21  C   UNL     1       3.007   8.365   1.314  0.00  0.00    +0.213 C 
ATOM     22  C   UNL     1       0.877   6.920   1.429  0.00  0.00    -0.025 C 
ENDROOT
BRANCH  18  23
ATOM     23  C   UNL     1       1.521   5.944  -6.061  0.00  0.00    +0.146 C 
ATOM     24  C   UNL     1       0.228   5.332  -5.740  0.00  0.00    +0.068 A 
ATOM     25  C   UNL     1      -0.704   5.286  -6.775  0.00  0.00    -0.005 A 
ATOM     26  C   UNL     1      -1.954   5.296  -6.161  0.00  0.00    +0.015 A 
ATOM     27  C   UNL     1      -1.728   5.332  -4.791  0.00  0.00    +0.081 A 
ATOM     28  C   UNL     1      -2.752   5.111  -3.874  0.00  0.00    +0.019 A 
ATOM     29  C   UNL     1      -4.044   4.993  -4.329  0.00  0.00    +0.002 A 
ATOM     30  C   UNL     1      -4.261   4.914  -5.684  0.00  0.00    +0.000 A 
ATOM     31  C   UNL     1      -3.249   5.145  -6.595  0.00  0.00    +0.001 A 
ATOM     32  C   UNL     1      -0.286   4.440  -7.906  0.00  0.00    +0.045 C 
ATOM     33  C   UNL     1      -0.334   5.153  -9.253  0.00  0.00    +0.077 C 
ATOM     34  N   UNL     1       0.776   4.712 -10.109  0.00  0.00    -0.270 NA
ATOM     35  C   UNL     1       1.429   5.847 -10.762  0.00  0.00    +0.103 C 
ATOM     36  C   UNL     1       2.937   5.830 -10.563  0.00  0.00    +0.141 C 
ATOM     37  C   UNL     1       3.345   6.004  -9.100  0.00  0.00    +0.033 C 
ATOM     38  C   UNL     1       1.873   5.798  -8.435  0.00  0.00    +0.020 C 
ATOM     39  O   UNL     1       3.422   6.941 -11.255  0.00  0.00    -0.224 OA
ATOM     40  C   UNL     1       1.763   4.305  -9.100  0.00  0.00    +0.072 C 
ATOM     41  N   UNL     1      -0.418   5.257  -4.548  0.00  0.00    -0.249 NA
ATOM     42  C   UNL     1       2.388   5.198  -7.010  0.00  0.00    +0.022 C 
BRANCH  36  43
ATOM     43  C   UNL     1       3.572   4.595 -11.153  0.00  0.00    +0.032 C 
ATOM     44  C   UNL     1       4.974   4.986 -11.581  0.00  0.00    +0.003 C 
ENDBRANCH  36  43
BRANCH  23  45
ATOM     45  C   UNL     1       1.379   7.342  -6.589  0.00  0.00    +0.325 C 
ATOM     46  O   UNL     1       0.191   7.766  -6.678  0.00  0.00    -0.249 OA
BRANCH  45  47
ATOM     47  O   UNL     1       2.434   8.147  -6.930  0.00  0.00    -0.444 OA
ATOM     48  C   UNL     1       2.428   8.673  -8.254  0.00  0.00    +0.256 C 
ENDBRANCH  45  47
ENDBRANCH  23  45
ENDBRANCH  18  23
BRANCH  17  49
ATOM     49  O   UNL     1       4.145   4.931  -5.830  0.00  0.00    -0.472 OA
ATOM     50  C   UNL     1       5.380   5.327  -6.361  0.00  0.00    +0.252 C 
ENDBRANCH  17  49
BRANCH  10  51
ATOM     51  C   UNL     1       3.961   8.416  -1.020  0.00  0.00    +0.350 C 
ATOM     52  O   UNL     1       3.972   9.670  -0.754  0.00  0.00    -0.247 OA
BRANCH  51  53
ATOM     53  O   UNL     1       5.086   8.184  -1.831  0.00  0.00    -0.443 OA
ATOM     54  C   UNL     1       5.076   8.459  -3.230  0.00  0.00    +0.256 C 
ENDBRANCH  51  53
ENDBRANCH  10  51
BRANCH   1  56
ATOM     55  C   UNL     1       1.608  10.095   1.634  0.00  0.00    +0.001 C 
ATOM     56  C   UNL     1       0.805   9.283   1.395  0.00  0.00    +0.009 C 
ENDBRANCH   1  56
BRANCH  21  57
ATOM     57  O   UNL     1       3.142   7.120   2.221  0.00  0.00    -0.449 OA
BRANCH  57  58
ATOM     58  C   UNL     1       3.900   7.377   3.334  0.00  0.00    +0.318 C 
ATOM     59  O   UNL     1       3.905   8.569   3.741  0.00  0.00    -0.250 OA
ATOM     60  C   UNL     1       5.014   6.484   3.750  0.00  0.00    +0.121 C 
ENDBRANCH  57  58
ENDBRANCH  21  57
TORSDOF 10
ENDMDL
MODEL 3
REMARK VINA RESULT:       0.1      2.431      4.025
REMARK  Name = 
REMARK  10 active torsions:
REMARK  status: ('A' for Active; 'I' for Inactive)
REMARK    1  A    between atoms: C_2  and  C_3
REMARK    2  A    between atoms: C_13  and  C_14
REMARK    3  A    between atoms: C_14  and  C_15
REMARK    4  A    between atoms: C_15  and  O_17
REMARK    5  A    between atoms: C_24  and  C_26
REMARK    6  A    between atoms: C_40  and  O_41
REMARK    7  A    between atoms: C_49  and  C_51
REMARK    8  A    between atoms: C_51  and  O_53
REMARK    9  A    between atoms: C_55  and  O_56
REMARK   10  A    between atoms: O_56  and  C_57
REMARK                            x       y       z     vdW  Elec       q    Type
REMARK                         _______ _______ _______ _____ _____    ______ ____
ROOT
ATOM      1  C   UNL     1       1.014   5.496 -10.647  0.00  0.00    +0.072 C 
ATOM      2  C   UNL     1       1.018   5.024  -9.097  0.00  0.00    +0.070 C 
ATOM      3  N   UNL     1      -0.343   5.721  -8.759  0.00  0.00    -0.269 NA
ATOM      4  C   UNL     1      -0.076   6.584  -7.699  0.00  0.00    +0.073 C 
ATOM      5  C   UNL     1       1.067   7.366  -8.346  0.00  0.00    +0.024 C 
ATOM      6  C   UNL     1      -1.108   6.072  -9.829  0.00  0.00    +0.099 C 
ATOM      7  C   UNL     1      -0.460   7.198 -10.591  0.00  0.00    -0.013 C 
ATOM      8  C   UNL     1       1.962   6.221  -8.525  0.00  0.00    +0.055 C 
ATOM      9  C   UNL     1       3.034   6.517  -9.704  0.00  0.00    +0.127 C 
ATOM     10  C   UNL     1       3.323   4.984 -10.130  0.00  0.00    +0.268 C 
ATOM     11  O   UNL     1       4.564   5.092 -10.781  0.00  0.00    -0.209 OA
ATOM     12  N   UNL     1       4.314   6.550  -8.789  0.00  0.00    -0.250 N 
ATOM     13  C   UNL     1       5.290   7.444  -9.346  0.00  0.00    +0.307 C 
ATOM     14  O   UNL     1       6.486   7.307  -9.005  0.00  0.00    -0.265 OA
ATOM     15  C   UNL     1       3.896   6.557  -7.468  0.00  0.00    +0.053 A 
ATOM     16  C   UNL     1       4.824   6.516  -6.425  0.00  0.00    +0.051 A 
ATOM     17  C   UNL     1       4.402   6.107  -5.168  0.00  0.00    +0.137 A 
ATOM     18  C   UNL     1       3.042   6.010  -4.971  0.00  0.00    +0.026 A 
ATOM     19  C   UNL     1       2.270   5.727  -6.069  0.00  0.00    -0.003 A 
ATOM     20  C   UNL     1       2.712   5.824  -7.386  0.00  0.00    -0.006 A 
ATOM     21  C   UNL     1       2.257   4.730 -11.344  0.00  0.00    +0.213 C 
ATOM     22  C   UNL     1       0.777   6.800 -10.941  0.00  0.00    -0.025 C 
ENDROOT
BRANCH  18  23
ATOM     23  C   UNL     1       2.506   6.207  -3.584  0.00  0.00    +0.146 C 
ATOM     24  C   UNL     1       1.051   6.375  -3.661  0.00  0.00    +0.068 A 
ATOM     25  C   UNL     1       0.368   6.373  -2.447  0.00  0.00    -0.005 A 
ATOM     26  C   UNL     1      -0.913   5.907  -2.733  0.00  0.00    +0.015 A 
ATOM     27  C   UNL     1      -0.956   5.663  -4.100  0.00  0.00    +0.081 A 
ATOM     28  C   UNL     1      -2.154   5.416  -4.763  0.00  0.00    +0.019 A 
ATOM     29  C   UNL     1      -3.308   5.271  -4.028  0.00  0.00    +0.002 A 
ATOM     30  C   UNL     1      -3.273   5.555  -2.684  0.00  0.00    +0.000 A 
ATOM     31  C   UNL     1      -2.084   5.788  -2.023  0.00  0.00    +0.001 A 
ATOM     32  C   UNL     1       0.717   7.507  -1.574  0.00  0.00    +0.045 C 
ATOM     33  C   UNL     1       1.149   7.088  -0.173  0.00  0.00    +0.077 C 
ATOM     34  N   UNL     1       2.214   7.970   0.323  0.00  0.00    -0.270 NA
ATOM     35  C   UNL     1       3.296   7.204   0.943  0.00  0.00    +0.103 C 
ATOM     36  C   UNL     1       4.658   7.585   0.385  0.00  0.00    +0.141 C 
ATOM     37  C   UNL     1       4.810   7.241  -1.097  0.00  0.00    +0.033 C 
ATOM     38  C   UNL     1       3.247   6.909  -1.407  0.00  0.00    +0.020 C 
ATOM     39  O   UNL     1       5.584   6.804   1.080  0.00  0.00    -0.224 OA
ATOM     40  C   UNL     1       2.817   8.419  -0.939  0.00  0.00    +0.072 C 
ATOM     41  N   UNL     1       0.196   6.036  -4.660  0.00  0.00    -0.249 NA
ATOM     42  C   UNL     1       3.269   7.331  -2.980  0.00  0.00    +0.022 C 
BRANCH  36  43
ATOM     43  C   UNL     1       4.987   9.036   0.634  0.00  0.00    +0.032 C 
ATOM     44  C   UNL     1       5.163   9.193   2.133  0.00  0.00    +0.003 C 
ENDBRANCH  36  43
BRANCH  23  45
ATOM     45  C   UNL     1       2.902   4.956  -2.857  0.00  0.00    +0.325 C 
ATOM     46  O   UNL     1       3.754   4.234  -3.452  0.00  0.00    -0.249 OA
BRANCH  45  47
ATOM     47  O   UNL     1       2.427   4.598  -1.623  0.00  0.00    -0.444 OA
ATOM     48  C   UNL     1       3.169   3.605  -0.920  0.00  0.00    +0.256 C 
ENDBRANCH  45  47
ENDBRANCH  23  45
ENDBRANCH  18  23
BRANCH  17  49
ATOM     49  O   UNL     1       5.279   6.310  -4.098  0.00  0.00    -0.472 OA
ATOM     50  C   UNL     1       6.299   7.271  -4.134  0.00  0.00    +0.252 C 
ENDBRANCH  17  49
BRANCH  10  51
ATOM     51  C   UNL     1       3.371   3.964  -9.214  0.00  0.00    +0.350 C 
ATOM     52  O   UNL     1       2.506   3.036  -9.397  0.00  0.00    -0.247 OA
BRANCH  51  53
ATOM     53  O   UNL     1       4.590   3.311  -8.964  0.00  0.00    -0.443 OA
ATOM     54  C   UNL     1       5.667   3.959  -8.290  0.00  0.00    +0.256 C 
ENDBRANCH  51  53
ENDBRANCH  10  51
BRANCH   1  56
ATOM     55  C   UNL     1       0.267   3.967 -12.070  0.00  0.00    +0.001 C 
ATOM     56  C   UNL     1      -0.123   4.628 -11.190  0.00  0.00    +0.009 C 
ENDBRANCH   1  56
BRANCH  21  57
ATOM     57  O   UNL     1       2.728   5.994 -12.099  0.00  0.00    -0.449 OA
BRANCH  57  58
ATOM     58  C   UNL     1       2.801   5.785 -13.452  0.00  0.00    +0.318 C 
ATOM     59  O   UNL     1       3.917   5.406 -13.897  0.00  0.00    -0.250 OA
ATOM     60  C   UNL     1       1.840   6.413 -14.397  0.00  0.00    +0.121 C 
ENDBRANCH  57  58
ENDBRANCH  21  57
TORSDOF 10
ENDMDL
MODEL 4
REMARK VINA RESULT:       0.2      3.892     11.615
REMARK  Name = 
REMARK  10 active torsions:
REMARK  status: ('A' for Active; 'I' for Inactive)
REMARK    1  A    between atoms: C_2  and  C_3
REMARK    2  A    between atoms: C_13  and  C_14
REMARK    3  A    between atoms: C_14  and  C_15
REMARK    4  A    between atoms: C_15  and  O_17
REMARK    5  A    between atoms: C_24  and  C_26
REMARK    6  A    between atoms: C_40  and  O_41
REMARK    7  A    between atoms: C_49  and  C_51
REMARK    8  A    between atoms: C_51  and  O_53
REMARK    9  A    between atoms: C_55  and  O_56
REMARK   10  A    between atoms: O_56  and  C_57
REMARK                            x       y       z     vdW  Elec       q    Type
REMARK                         _______ _______ _______ _____ _____    ______ ____
ROOT
ATOM      1  C   UNL     1       3.533   5.726  -4.611  0.00  0.00    +0.072 C 
ATOM      2  C   UNL     1       3.533   5.163  -6.131  0.00  0.00    +0.070 C 
ATOM      3  N   UNL     1       4.902   5.827  -6.501  0.00  0.00    -0.269 NA
ATOM      4  C   UNL     1       4.649   6.627  -7.611  0.00  0.00    +0.073 C 
ATOM      5  C   UNL     1       3.509   7.456  -7.019  0.00  0.00    +0.024 C 
ATOM      6  C   UNL     1       5.664   6.234  -5.449  0.00  0.00    +0.099 C 
ATOM      7  C   UNL     1       5.023   7.408  -4.758  0.00  0.00    -0.013 C 
ATOM      8  C   UNL     1       2.604   6.332  -6.778  0.00  0.00    +0.055 C 
ATOM      9  C   UNL     1       1.527   6.707  -5.625  0.00  0.00    +0.127 C 
ATOM     10  C   UNL     1       1.222   5.205  -5.111  0.00  0.00    +0.268 C 
ATOM     11  O   UNL     1      -0.022   5.362  -4.476  0.00  0.00    -0.209 OA
ATOM     12  N   UNL     1       0.253   6.698  -6.549  0.00  0.00    -0.250 N 
ATOM     13  C   UNL     1      -0.718   7.631  -6.051  0.00  0.00    +0.307 C 
ATOM     14  O   UNL     1      -1.913   7.486  -6.390  0.00  0.00    -0.265 OA
ATOM     15  C   UNL     1       0.678   6.622  -7.865  0.00  0.00    +0.053 A 
ATOM     16  C   UNL     1      -0.244   6.528  -8.909  0.00  0.00    +0.051 A 
ATOM     17  C   UNL     1       0.181   6.042 -10.137  0.00  0.00    +0.137 A 
ATOM     18  C   UNL     1       1.541   5.921 -10.320  0.00  0.00    +0.026 A 
ATOM     19  C   UNL     1       2.304   5.697  -9.203  0.00  0.00    -0.003 A 
ATOM     20  C   UNL     1       1.856   5.875  -7.897  0.00  0.00    -0.006 A 
ATOM     21  C   UNL     1       2.279   5.014  -3.878  0.00  0.00    +0.213 C 
ATOM     22  C   UNL     1       3.780   7.042  -4.393  0.00  0.00    -0.025 C 
ENDROOT
BRANCH  18  23
ATOM     23  C   UNL     1       2.087   6.031 -11.713  0.00  0.00    +0.146 C 
ATOM     24  C   UNL     1       3.540   6.213 -11.636  0.00  0.00    +0.068 A 
ATOM     25  C   UNL     1       4.233   6.136 -12.843  0.00  0.00    -0.005 A 
ATOM     26  C   UNL     1       5.514   5.698 -12.517  0.00  0.00    +0.015 A 
ATOM     27  C   UNL     1       5.547   5.544 -11.137  0.00  0.00    +0.081 A 
ATOM     28  C   UNL     1       6.742   5.347 -10.451  0.00  0.00    +0.019 A 
ATOM     29  C   UNL     1       7.902   5.162 -11.166  0.00  0.00    +0.002 A 
ATOM     30  C   UNL     1       7.876   5.358 -12.526  0.00  0.00    +0.000 A 
ATOM     31  C   UNL     1       6.690   5.540 -13.210  0.00  0.00    +0.001 A 
ATOM     32  C   UNL     1       3.884   7.208 -13.790  0.00  0.00    +0.045 C 
ATOM     33  C   UNL     1       3.464   6.697 -15.164  0.00  0.00    +0.077 C 
ATOM     34  N   UNL     1       2.398   7.538 -15.724  0.00  0.00    -0.270 NA
ATOM     35  C   UNL     1       1.326   6.726 -16.301  0.00  0.00    +0.103 C 
ATOM     36  C   UNL     1      -0.043   7.134 -15.779  0.00  0.00    +0.141 C 
ATOM     37  C   UNL     1      -0.204   6.886 -14.279  0.00  0.00    +0.033 C 
ATOM     38  C   UNL     1       1.358   6.585 -13.937  0.00  0.00    +0.020 C 
ATOM     39  O   UNL     1      -0.959   6.304 -16.429  0.00  0.00    -0.224 OA
ATOM     40  C   UNL     1       1.784   8.064 -14.498  0.00  0.00    +0.072 C 
ATOM     41  N   UNL     1       4.389   5.945 -10.611  0.00  0.00    -0.249 NA
ATOM     42  C   UNL     1       1.321   7.108 -12.394  0.00  0.00    +0.022 C 
BRANCH  36  43
ATOM     43  C   UNL     1      -0.378   8.564 -16.124  0.00  0.00    +0.032 C 
ATOM     44  C   UNL     1      -0.539   8.623 -17.632  0.00  0.00    +0.003 C 
ENDBRANCH  36  43
BRANCH  23  45
ATOM     45  C   UNL     1       1.703   4.732 -12.360  0.00  0.00    +0.325 C 
ATOM     46  O   UNL     1       0.936   3.996 -11.675  0.00  0.00    -0.249 OA
BRANCH  45  47
ATOM     47  O   UNL     1       2.105   4.347 -13.612  0.00  0.00    -0.444 OA
ATOM     48  C   UNL     1       1.296   3.374 -14.266  0.00  0.00    +0.256 C 
ENDBRANCH  45  47
ENDBRANCH  23  45
ENDBRANCH  18  23
BRANCH  17  49
ATOM     49  O   UNL     1      -0.689   6.189 -11.222  0.00  0.00    -0.472 OA
ATOM     50  C   UNL     1      -1.625   7.229 -11.300  0.00  0.00    +0.252 C 
ENDBRANCH  17  49
BRANCH  10  51
ATOM     51  C   UNL     1       1.170   4.133  -5.965  0.00  0.00    +0.350 C 
ATOM     52  O   UNL     1       2.012   3.201  -5.711  0.00  0.00    -0.247 OA
BRANCH  51  53
ATOM     53  O   UNL     1      -0.058   3.489  -6.199  0.00  0.00    -0.443 OA
ATOM     54  C   UNL     1      -1.165   4.169  -6.788  0.00  0.00    +0.256 C 
ENDBRANCH  51  53
ENDBRANCH  10  51
BRANCH   1  56
ATOM     55  C   UNL     1       4.280   4.342  -3.047  0.00  0.00    +0.001 C 
ATOM     56  C   UNL     1       4.658   4.881  -4.011  0.00  0.00    +0.009 C 
ENDBRANCH   1  56
BRANCH  21  57
ATOM     57  O   UNL     1       1.815   6.324  -3.201  0.00  0.00    -0.449 OA
BRANCH  57  58
ATOM     58  C   UNL     1       1.685   6.182  -1.845  0.00  0.00    +0.318 C 
ATOM     59  O   UNL     1       2.485   6.849  -1.136  0.00  0.00    -0.250 OA
ATOM     60  C   UNL     1       1.024   4.996  -1.238  0.00  0.00    +0.121 C 
ENDBRANCH  57  58
ENDBRANCH  21  57
TORSDOF 10
ENDMDL
MODEL 5
REMARK VINA RESULT:       1.2      2.530      4.478
REMARK  Name = 
REMARK  10 active torsions:
REMARK  status: ('A' for Active; 'I' for Inactive)
REMARK    1  A    between atoms: C_2  and  C_3
REMARK    2  A    between atoms: C_13  and  C_14
REMARK    3  A    between atoms: C_14  and  C_15
REMARK    4  A    between atoms: C_15  and  O_17
REMARK    5  A    between atoms: C_24  and  C_26
REMARK    6  A    between atoms: C_40  and  O_41
REMARK    7  A    between atoms: C_49  and  C_51
REMARK    8  A    between atoms: C_51  and  O_53
REMARK    9  A    between atoms: C_55  and  O_56
REMARK   10  A    between atoms: O_56  and  C_57
REMARK                            x       y       z     vdW  Elec       q    Type
REMARK                         _______ _______ _______ _____ _____    ______ ____
ROOT
ATOM      1  C   UNL     1       2.845   5.672  -8.538  0.00  0.00    +0.072 C 
ATOM      2  C   UNL     1       2.085   5.273  -7.163  0.00  0.00    +0.070 C 
ATOM      3  N   UNL     1       0.721   5.910  -7.594  0.00  0.00    -0.269 NA
ATOM      4  C   UNL     1       0.402   6.834  -6.603  0.00  0.00    +0.073 C 
ATOM      5  C   UNL     1       1.697   7.646  -6.646  0.00  0.00    +0.024 C 
ATOM      6  C   UNL     1       0.585   6.169  -8.924  0.00  0.00    +0.099 C 
ATOM      7  C   UNL     1       1.499   7.292  -9.337  0.00  0.00    -0.013 C 
ATOM      8  C   UNL     1       2.588   6.545  -6.279  0.00  0.00    +0.055 C 
ATOM      9  C   UNL     1       4.098   6.843  -6.786  0.00  0.00    +0.127 C 
ATOM     10  C   UNL     1       4.598   5.311  -6.908  0.00  0.00    +0.268 C 
ATOM     11  O   UNL     1       5.995   5.456  -6.861  0.00  0.00    -0.209 OA
ATOM     12  N   UNL     1       4.749   6.989  -5.360  0.00  0.00    -0.250 N 
ATOM     13  C   UNL     1       5.851   7.907  -5.417  0.00  0.00    +0.307 C 
ATOM     14  O   UNL     1       6.719   7.852  -4.519  0.00  0.00    -0.265 OA
ATOM     15  C   UNL     1       3.727   7.034  -4.426  0.00  0.00    +0.053 A 
ATOM     16  C   UNL     1       4.010   7.092  -3.060  0.00  0.00    +0.051 A 
ATOM     17  C   UNL     1       3.027   6.720  -2.154  0.00  0.00    +0.137 A 
ATOM     18  C   UNL     1       1.753   6.558  -2.654  0.00  0.00    +0.026 A 
ATOM     19  C   UNL     1       1.640   6.183  -3.968  0.00  0.00    -0.003 A 
ATOM     20  C   UNL     1       2.678   6.242  -4.894  0.00  0.00    -0.006 A 
ATOM     21  C   UNL     1       4.287   4.943  -8.471  0.00  0.00    +0.213 C 
ATOM     22  C   UNL     1       2.755   6.946  -8.997  0.00  0.00    -0.025 C 
ENDROOT
BRANCH  18  23
ATOM     23  C   UNL     1       0.591   6.790  -1.734  0.00  0.00    +0.146 C 
ATOM     24  C   UNL     1      -0.641   6.809  -2.528  0.00  0.00    +0.068 A 
ATOM     25  C   UNL     1      -1.835   6.818  -1.809  0.00  0.00    -0.005 A 
ATOM     26  C   UNL     1      -2.779   6.212  -2.634  0.00  0.00    +0.015 A 
ATOM     27  C   UNL     1      -2.127   5.879  -3.814  0.00  0.00    +0.081 A 
ATOM     28  C   UNL     1      -2.825   5.474  -4.947  0.00  0.00    +0.019 A 
ATOM     29  C   UNL     1      -4.181   5.264  -4.859  0.00  0.00    +0.002 A 
ATOM     30  C   UNL     1      -4.832   5.635  -3.707  0.00  0.00    +0.000 A 
ATOM     31  C   UNL     1      -4.140   6.025  -2.577  0.00  0.00    +0.001 A 
ATOM     32  C   UNL     1      -2.025   8.034  -0.999  0.00  0.00    +0.045 C 
ATOM     33  C   UNL     1      -2.320   7.749   0.470  0.00  0.00    +0.077 C 
ATOM     34  N   UNL     1      -1.689   8.761   1.328  0.00  0.00    -0.270 NA
ATOM     35  C   UNL     1      -1.017   8.145   2.472  0.00  0.00    +0.103 C 
ATOM     36  C   UNL     1       0.421   8.621   2.614  0.00  0.00    +0.141 C 
ATOM     37  C   UNL     1       1.304   8.199   1.440  0.00  0.00    +0.033 C 
ATOM     38  C   UNL     1       0.119   7.698   0.442  0.00  0.00    +0.020 C 
ATOM     39  O   UNL     1       0.921   7.980   3.749  0.00  0.00    -0.224 OA
ATOM     40  C   UNL     1      -0.566   9.185   0.481  0.00  0.00    +0.072 C 
ATOM     41  N   UNL     1      -0.870   6.326  -3.776  0.00  0.00    -0.249 NA
ATOM     42  C   UNL     1       0.895   8.018  -0.955  0.00  0.00    +0.022 C 
BRANCH  36  43
ATOM     43  C   UNL     1       0.505  10.110   2.840  0.00  0.00    +0.032 C 
ATOM     44  C   UNL     1       1.857  10.556   2.316  0.00  0.00    +0.003 C 
ENDBRANCH  36  43
BRANCH  23  45
ATOM     45  C   UNL     1       0.643   5.632  -0.781  0.00  0.00    +0.325 C 
ATOM     46  O   UNL     1       0.570   5.939   0.444  0.00  0.00    -0.249 OA
BRANCH  45  47
ATOM     47  O   UNL     1       0.728   4.320  -1.166  0.00  0.00    -0.444 OA
ATOM     48  C   UNL     1       1.948   3.648  -0.865  0.00  0.00    +0.256 C 
ENDBRANCH  45  47
ENDBRANCH  23  45
ENDBRANCH  18  23
BRANCH  17  49
ATOM     49  O   UNL     1       3.248   7.020  -0.807  0.00  0.00    -0.472 OA
ATOM     50  C   UNL     1       4.156   6.303  -0.016  0.00  0.00    +0.252 C 
ENDBRANCH  17  49
BRANCH  10  51
ATOM     51  C   UNL     1       4.207   4.338  -6.024  0.00  0.00    +0.350 C 
ATOM     52  O   UNL     1       3.682   3.301  -6.562  0.00  0.00    -0.247 OA
BRANCH  51  53
ATOM     53  O   UNL     1       5.120   3.857  -5.069  0.00  0.00    -0.443 OA
ATOM     54  C   UNL     1       4.774   3.731  -3.692  0.00  0.00    +0.256 C 
ENDBRANCH  51  53
ENDBRANCH  10  51
BRANCH   1  56
ATOM     55  C   UNL     1       2.379   3.613  -9.218  0.00  0.00    +0.001 C 
ATOM     56  C   UNL     1       2.152   4.719  -9.514  0.00  0.00    +0.009 C 
ENDBRANCH   1  56
BRANCH  21  57
ATOM     57  O   UNL     1       5.043   6.194  -8.975  0.00  0.00    -0.449 OA
BRANCH  57  58
ATOM     58  C   UNL     1       5.804   5.922 -10.081  0.00  0.00    +0.318 C 
ATOM     59  O   UNL     1       5.262   5.212 -10.970  0.00  0.00    -0.250 OA
ATOM     60  C   UNL     1       7.289   6.007 -10.054  0.00  0.00    +0.121 C 
ENDBRANCH  57  58
ENDBRANCH  21  57
TORSDOF 10
ENDMDL
MODEL 6
REMARK VINA RESULT:       1.4      5.396     11.946
REMARK  Name = 
REMARK  10 active torsions:
REMARK  status: ('A' for Active; 'I' for Inactive)
REMARK    1  A    between atoms: C_2  and  C_3
REMARK    2  A    between atoms: C_13  and  C_14
REMARK    3  A    between atoms: C_14  and  C_15
REMARK    4  A    between atoms: C_15  and  O_17
REMARK    5  A    between atoms: C_24  and  C_26
REMARK    6  A    between atoms: C_40  and  O_41
REMARK    7  A    between atoms: C_49  and  C_51
REMARK    8  A    between atoms: C_51  and  O_53
REMARK    9  A    between atoms: C_55  and  O_56
REMARK   10  A    between atoms: O_56  and  C_57
REMARK                            x       y       z     vdW  Elec       q    Type
REMARK                         _______ _______ _______ _____ _____    ______ ____
ROOT
ATOM      1  C   UNL     1       1.467   5.935  -6.515  0.00  0.00    +0.072 C 
ATOM      2  C   UNL     1       2.337   5.354  -7.754  0.00  0.00    +0.070 C 
ATOM      3  N   UNL     1       3.680   5.990  -7.261  0.00  0.00    -0.269 NA
ATOM      4  C   UNL     1       4.135   6.782  -8.311  0.00  0.00    +0.073 C 
ATOM      5  C   UNL     1       2.881   7.638  -8.489  0.00  0.00    +0.024 C 
ATOM      6  C   UNL     1       3.700   6.395  -5.961  0.00  0.00    +0.099 C 
ATOM      7  C   UNL     1       2.802   7.589  -5.770  0.00  0.00    -0.013 C 
ATOM      8  C   UNL     1       1.980   6.533  -8.819  0.00  0.00    +0.055 C 
ATOM      9  C   UNL     1       0.443   6.939  -8.504  0.00  0.00    +0.127 C 
ATOM     10  C   UNL     1      -0.136   5.449  -8.263  0.00  0.00    +0.268 C 
ATOM     11  O   UNL     1      -1.514   5.635  -8.467  0.00  0.00    -0.209 OA
ATOM     12  N   UNL     1      -0.060   6.942  -9.995  0.00  0.00    -0.250 N 
ATOM     13  C   UNL     1      -1.120   7.898 -10.152  0.00  0.00    +0.307 C 
ATOM     14  O   UNL     1      -1.899   7.770 -11.121  0.00  0.00    -0.265 OA
ATOM     15  C   UNL     1       1.048   6.844 -10.821  0.00  0.00    +0.053 A 
ATOM     16  C   UNL     1       0.900   6.754 -12.207  0.00  0.00    +0.051 A 
ATOM     17  C   UNL     1       1.948   6.247 -12.961  0.00  0.00    +0.137 A 
ATOM     18  C   UNL     1       3.159   6.100 -12.321  0.00  0.00    +0.026 A 
ATOM     19  C   UNL     1       3.128   5.875 -10.968  0.00  0.00    -0.003 A 
ATOM     20  C   UNL     1       2.010   6.076 -10.164  0.00  0.00    -0.006 A 
ATOM     21  C   UNL     1       0.006   5.253  -6.646  0.00  0.00    +0.213 C 
ATOM     22  C   UNL     1       1.570   7.249  -6.193  0.00  0.00    -0.025 C 
ENDROOT
BRANCH  18  23
ATOM     23  C   UNL     1       4.413   6.184 -13.139  0.00  0.00    +0.146 C 
ATOM     24  C   UNL     1       5.555   6.360 -12.235  0.00  0.00    +0.068 A 
ATOM     25  C   UNL     1       6.818   6.260 -12.814  0.00  0.00    -0.005 A 
ATOM     26  C   UNL     1       7.666   5.821 -11.801  0.00  0.00    +0.015 A 
ATOM     27  C   UNL     1       6.890   5.688 -10.656  0.00  0.00    +0.081 A 
ATOM     28  C   UNL     1       7.462   5.497  -9.402  0.00  0.00    +0.019 A 
ATOM     29  C   UNL     1       8.819   5.295  -9.309  0.00  0.00    +0.002 A 
ATOM     30  C   UNL     1       9.590   5.468 -10.433  0.00  0.00    +0.000 A 
ATOM     31  C   UNL     1       9.024   5.645 -11.680  0.00  0.00    +0.001 A 
ATOM     32  C   UNL     1       7.099   7.318 -13.799  0.00  0.00    +0.045 C 
ATOM     33  C   UNL     1       7.548   6.787 -15.156  0.00  0.00    +0.077 C 
ATOM     34  N   UNL     1       7.016   7.624 -16.239  0.00  0.00    -0.270 NA
ATOM     35  C   UNL     1       6.467   6.809 -17.323  0.00  0.00    +0.103 C 
ATOM     36  C   UNL     1       5.055   7.232 -17.697  0.00  0.00    +0.141 C 
ATOM     37  C   UNL     1       4.050   7.009 -16.567  0.00  0.00    +0.033 C 
ATOM     38  C   UNL     1       5.119   6.706 -15.378  0.00  0.00    +0.020 C 
ATOM     39  O   UNL     1       4.675   6.396 -18.749  0.00  0.00    -0.224 OA
ATOM     40  C   UNL     1       5.811   8.174 -15.604  0.00  0.00    +0.072 C 
ATOM     41  N   UNL     1       5.647   6.104 -10.905  0.00  0.00    -0.249 NA
ATOM     42  C   UNL     1       4.201   7.254 -14.149  0.00  0.00    +0.022 C 
BRANCH  36  43
ATOM     43  C   UNL     1       5.002   8.658 -18.188  0.00  0.00    +0.032 C 
ATOM     44  C   UNL     1       3.535   9.019 -18.325  0.00  0.00    +0.003 C 
ENDBRANCH  36  43
BRANCH  23  45
ATOM     45  C   UNL     1       4.459   4.877 -13.875  0.00  0.00    +0.325 C 
ATOM     46  O   UNL     1       5.530   4.219 -13.738  0.00  0.00    -0.249 OA
BRANCH  45  47
ATOM     47  O   UNL     1       3.426   4.379 -14.626  0.00  0.00    -0.444 OA
ATOM     48  C   UNL     1       2.919   3.105 -14.240  0.00  0.00    +0.256 C 
ENDBRANCH  45  47
ENDBRANCH  23  45
ENDBRANCH  18  23
BRANCH  17  49
ATOM     49  O   UNL     1       1.872   6.397 -14.349  0.00  0.00    -0.472 OA
ATOM     50  C   UNL     1       0.673   6.698 -15.008  0.00  0.00    +0.252 C 
ENDBRANCH  17  49
BRANCH  10  51
ATOM     51  C   UNL     1       0.295   4.368  -8.990  0.00  0.00    +0.350 C 
ATOM     52  O   UNL     1       0.691   3.372  -8.289  0.00  0.00    -0.247 OA
BRANCH  51  53
ATOM     53  O   UNL     1      -0.532   3.830  -9.992  0.00  0.00    -0.443 OA
ATOM     54  C   UNL     1      -0.024   3.471 -11.275  0.00  0.00    +0.256 C 
ENDBRANCH  51  53
ENDBRANCH  10  51
BRANCH   1  56
ATOM     55  C   UNL     1       1.141   4.690  -4.709  0.00  0.00    +0.001 C 
ATOM     56  C   UNL     1       2.019   5.078  -5.374  0.00  0.00    +0.009 C 
ENDBRANCH   1  56
BRANCH  21  57
ATOM     57  O   UNL     1      -0.737   6.579  -6.362  0.00  0.00    -0.449 OA
BRANCH  57  58
ATOM     58  C   UNL     1      -1.623   6.458  -5.325  0.00  0.00    +0.318 C 
ATOM     59  O   UNL     1      -2.405   5.471  -5.372  0.00  0.00    -0.250 OA
ATOM     60  C   UNL     1      -2.003   7.619  -4.476  0.00  0.00    +0.121 C 
ENDBRANCH  57  58
ENDBRANCH  21  57
TORSDOF 10
ENDMDL
MODEL 7
REMARK VINA RESULT:       1.5      3.255     10.666
REMARK  Name = 
REMARK  10 active torsions:
REMARK  status: ('A' for Active; 'I' for Inactive)
REMARK    1  A    between atoms: C_2  and  C_3
REMARK    2  A    between atoms: C_13  and  C_14
REMARK    3  A    between atoms: C_14  and  C_15
REMARK    4  A    between atoms: C_15  and  O_17
REMARK    5  A    between atoms: C_24  and  C_26
REMARK    6  A    between atoms: C_40  and  O_41
REMARK    7  A    between atoms: C_49  and  C_51
REMARK    8  A    between atoms: C_51  and  O_53
REMARK    9  A    between atoms: C_55  and  O_56
REMARK   10  A    between atoms: O_56  and  C_57
REMARK                            x       y       z     vdW  Elec       q    Type
REMARK                         _______ _______ _______ _____ _____    ______ ____
ROOT
ATOM      1  C   UNL     1       3.130   6.244  -2.713  0.00  0.00    +0.072 C 
ATOM      2  C   UNL     1       3.179   5.472  -4.138  0.00  0.00    +0.070 C 
ATOM      3  N   UNL     1       4.648   5.911  -4.457  0.00  0.00    -0.269 NA
ATOM      4  C   UNL     1       4.591   6.568  -5.683  0.00  0.00    +0.073 C 
ATOM      5  C   UNL     1       3.525   7.601  -5.321  0.00  0.00    +0.024 C 
ATOM      6  C   UNL     1       5.370   6.373  -3.399  0.00  0.00    +0.099 C 
ATOM      7  C   UNL     1       4.833   7.701  -2.937  0.00  0.00    -0.013 C 
ATOM      8  C   UNL     1       2.465   6.637  -5.022  0.00  0.00    +0.055 C 
ATOM      9  C   UNL     1       1.357   7.297  -4.040  0.00  0.00    +0.127 C 
ATOM     10  C   UNL     1       0.819   5.931  -3.363  0.00  0.00    +0.268 C 
ATOM     11  O   UNL     1      -0.441   6.322  -2.878  0.00  0.00    -0.209 OA
ATOM     12  N   UNL     1       0.170   7.305  -5.074  0.00  0.00    -0.250 N 
ATOM     13  C   UNL     1      -0.709   8.407  -4.802  0.00  0.00    +0.307 C 
ATOM     14  O   UNL     1      -1.881   8.355  -5.233  0.00  0.00    -0.265 OA
ATOM     15  C   UNL     1       0.686   6.991  -6.321  0.00  0.00    +0.053 A 
ATOM     16  C   UNL     1      -0.154   6.856  -7.428  0.00  0.00    +0.051 A 
ATOM     17  C   UNL     1       0.302   6.153  -8.533  0.00  0.00    +0.137 A 
ATOM     18  C   UNL     1       1.646   5.848  -8.564  0.00  0.00    +0.026 A 
ATOM     19  C   UNL     1       2.281   5.699  -7.358  0.00  0.00    -0.003 A 
ATOM     20  C   UNL     1       1.756   6.115  -6.138  0.00  0.00    -0.006 A 
ATOM     21  C   UNL     1       1.740   5.796  -2.018  0.00  0.00    +0.213 C 
ATOM     22  C   UNL     1       3.527   7.540  -2.649  0.00  0.00    -0.025 C 
ENDROOT
BRANCH  18  23
ATOM     23  C   UNL     1       2.311   5.692  -9.900  0.00  0.00    +0.146 C 
ATOM     24  C   UNL     1       3.735   6.009  -9.756  0.00  0.00    +0.068 A 
ATOM     25  C   UNL     1       4.541   5.726 -10.857  0.00  0.00    -0.005 A 
ATOM     26  C   UNL     1       5.813   5.483 -10.343  0.00  0.00    +0.015 A 
ATOM     27  C   UNL     1       5.727   5.642  -8.966  0.00  0.00    +0.081 A 
ATOM     28  C   UNL     1       6.862   5.706  -8.164  0.00  0.00    +0.019 A 
ATOM     29  C   UNL     1       8.094   5.467  -8.727  0.00  0.00    +0.002 A 
ATOM     30  C   UNL     1       8.183   5.352 -10.093  0.00  0.00    +0.000 A 
ATOM     31  C   UNL     1       7.057   5.276 -10.889  0.00  0.00    +0.001 A 
ATOM     32  C   UNL     1       4.213   6.527 -12.048  0.00  0.00    +0.045 C 
ATOM     33  C   UNL     1       3.959   5.689 -13.297  0.00  0.00    +0.077 C 
ATOM     34  N   UNL     1       2.897   6.291 -14.114  0.00  0.00    -0.270 NA
ATOM     35  C   UNL     1       1.939   5.283 -14.570  0.00  0.00    +0.103 C 
ATOM     36  C   UNL     1       0.503   5.678 -14.261  0.00  0.00    +0.141 C 
ATOM     37  C   UNL     1       0.219   5.757 -12.761  0.00  0.00    +0.033 C 
ATOM     38  C   UNL     1       1.759   5.674 -12.240  0.00  0.00    +0.020 C 
ATOM     39  O   UNL     1      -0.291   4.649 -14.771  0.00  0.00    -0.224 OA
ATOM     40  C   UNL     1       2.136   7.022 -13.091  0.00  0.00    +0.072 C 
ATOM     41  N   UNL     1       4.500   6.050  -8.635  0.00  0.00    -0.249 NA
ATOM     42  C   UNL     1       1.543   6.521 -10.865  0.00  0.00    +0.022 C 
BRANCH  36  43
ATOM     43  C   UNL     1       0.108   6.962 -14.949  0.00  0.00    +0.032 C 
ATOM     44  C   UNL     1      -0.502   6.572 -16.282  0.00  0.00    +0.003 C 
ENDBRANCH  36  43
BRANCH  23  45
ATOM     45  C   UNL     1       2.076   4.254 -10.260  0.00  0.00    +0.325 C 
ATOM     46  O   UNL     1       2.823   3.422  -9.668  0.00  0.00    -0.249 OA
BRANCH  45  47
ATOM     47  O   UNL     1       1.112   3.827 -11.135  0.00  0.00    -0.444 OA
ATOM     48  C   UNL     1      -0.040   3.215 -10.561  0.00  0.00    +0.256 C 
ENDBRANCH  45  47
ENDBRANCH  23  45
ENDBRANCH  18  23
BRANCH  17  49
ATOM     49  O   UNL     1      -0.451   6.243  -9.708  0.00  0.00    -0.472 OA
ATOM     50  C   UNL     1      -0.825   7.472 -10.268  0.00  0.00    +0.252 C 
ENDBRANCH  17  49
BRANCH  10  51
ATOM     51  C   UNL     1       0.697   4.761  -4.068  0.00  0.00    +0.350 C 
ATOM     52  O   UNL     1       0.768   3.695  -3.359  0.00  0.00    -0.247 OA
BRANCH  51  53
ATOM     53  O   UNL     1      -0.399   4.579  -4.930  0.00  0.00    -0.443 OA
ATOM     54  C   UNL     1      -1.730   4.900  -4.533  0.00  0.00    +0.256 C 
ENDBRANCH  51  53
ENDBRANCH  10  51
BRANCH   1  56
ATOM     55  C   UNL     1       3.477   4.601  -1.265  0.00  0.00    +0.001 C 
ATOM     56  C   UNL     1       4.085   5.368  -1.900  0.00  0.00    +0.009 C 
ENDBRANCH   1  56
BRANCH  21  57
ATOM     57  O   UNL     1       1.397   7.236  -1.570  0.00  0.00    -0.449 OA
BRANCH  57  58
ATOM     58  C   UNL     1       1.157   7.310  -0.223  0.00  0.00    +0.318 C 
ATOM     59  O   UNL     1       2.162   7.201   0.529  0.00  0.00    -0.250 OA
ATOM     60  C   UNL     1      -0.188   7.038   0.352  0.00  0.00    +0.121 C 
ENDBRANCH  57  58
ENDBRANCH  21  57
TORSDOF 10
ENDMDL
