MODEL 1
REMARK VINA RESULT:      -8.6      0.000      0.000
REMARK  Name = 
REMARK  5 active torsions:
REMARK  status: ('A' for Active; 'I' for Inactive)
REMARK    1  A    between atoms: N_12  and  C_13
REMARK    2  A    between atoms: C_13  and  C_14
REMARK    3  A    between atoms: C_14  and  C_15
REMARK    4  A    between atoms: C_15  and  C_16
REMARK    5  A    between atoms: C_16  and  N_17
REMARK                            x       y       z     vdW  Elec       q    Type
REMARK                         _______ _______ _______ _____ _____    ______ ____
ROOT
ATOM      1  C   UNL     1       1.905   7.348  -0.320  0.00  0.00    +0.023 C 
ENDROOT
BRANCH   1   2
ATOM      2  C   UNL     1       0.673   6.721   0.271  0.00  0.00    +0.101 C 
BRANCH   2   5
ATOM      3  O   UNL     1       0.426   4.497  -1.459  0.00  0.00    -0.274 OA
ATOM      4  C   UNL     1      -0.276   5.509  -1.735  0.00  0.00    +0.231 C 
ATOM      5  N   UNL     1      -0.354   6.515  -0.720  0.00  0.00    -0.230 N 
ATOM      6  C   UNL     1      -1.352   7.519  -0.945  0.00  0.00    +0.231 C 
ATOM      7  O   UNL     1      -1.449   8.455  -0.110  0.00  0.00    -0.274 OA
ATOM      8  C   UNL     1      -2.517   7.077  -1.756  0.00  0.00    +0.086 C 
ATOM      9  C   UNL     1      -2.098   6.541  -3.089  0.00  0.00    +0.017 C 
ATOM     10  C   UNL     1      -3.139   5.608  -3.687  0.00  0.00    +0.001 C 
ATOM     11  C   UNL     1      -2.577   5.440  -5.094  0.00  0.00    +0.000 C 
ATOM     12  C   UNL     1      -1.886   6.754  -5.415  0.00  0.00    +0.000 C 
ATOM     13  C   UNL     1      -2.020   7.611  -4.162  0.00  0.00    +0.001 C 
ATOM     14  C   UNL     1      -0.790   5.811  -3.084  0.00  0.00    +0.086 C 
ENDBRANCH   2   5
ENDBRANCH   1   2
BRANCH   1  15
ATOM     15  C   UNL     1       3.063   6.407  -0.134  0.00  0.00    +0.019 C 
BRANCH  15  16
ATOM     16  C   UNL     1       4.204   6.909  -1.012  0.00  0.00    +0.072 C 
BRANCH  16  17
ATOM     17  N   UNL     1       3.738   6.890  -2.356  0.00  0.00    -0.270 NA
ATOM     18  C   UNL     1       4.117   7.948  -3.194  0.00  0.00    +0.094 C 
ATOM     19  C   UNL     1       4.646   7.602  -4.541  0.00  0.00    +0.111 C 
ATOM     20  N   UNL     1       4.129   6.343  -5.063  0.00  0.00    -0.275 N 
ATOM     21  C   UNL     1       3.116   6.310  -6.048  0.00  0.00    +0.220 A 
ATOM     22  N   UNL     1       3.135   7.284  -6.985  0.00  0.00    -0.212 NA
ATOM     23  C   UNL     1       2.056   7.461  -7.768  0.00  0.00    +0.103 A 
ATOM     24  C   UNL     1       1.140   6.426  -7.906  0.00  0.00    +0.041 A 
ATOM     25  C   UNL     1       1.341   5.291  -7.147  0.00  0.00    +0.103 A 
ATOM     26  N   UNL     1       2.268   5.287  -6.179  0.00  0.00    -0.212 NA
ATOM     27  C   UNL     1       4.202   5.230  -4.121  0.00  0.00    +0.111 C 
ATOM     28  C   UNL     1       3.413   5.642  -2.915  0.00  0.00    +0.094 C 
ENDBRANCH  16  17
ENDBRANCH  15  16
ENDBRANCH   1  15
TORSDOF 5
ENDMDL
MODEL 2
REMARK VINA RESULT:      -8.5      4.347      8.756
REMARK  Name = 
REMARK  5 active torsions:
REMARK  status: ('A' for Active; 'I' for Inactive)
REMARK    1  A    between atoms: N_12  and  C_13
REMARK    2  A    between atoms: C_13  and  C_14
REMARK    3  A    between atoms: C_14  and  C_15
REMARK    4  A    between atoms: C_15  and  C_16
REMARK    5  A    between atoms: C_16  and  N_17
REMARK                            x       y       z     vdW  Elec       q    Type
REMARK                         _______ _______ _______ _____ _____    ______ ____
ROOT
ATOM      1  C   UNL     1       1.070   6.655 -10.000  0.00  0.00    +0.023 C 
ENDROOT
BRANCH   1   2
ATOM      2  C   UNL     1       1.596   5.292 -10.354  0.00  0.00    +0.101 C 
BRANCH   2   5
ATOM      3  O   UNL     1       3.835   4.305  -8.937  0.00  0.00    -0.274 OA
ATOM      4  C   UNL     1       4.075   5.068  -9.913  0.00  0.00    +0.231 C 
ATOM      5  N   UNL     1       2.971   5.342 -10.783  0.00  0.00    -0.230 N 
ATOM      6  C   UNL     1       3.322   5.988 -12.013  0.00  0.00    +0.231 C 
ATOM      7  O   UNL     1       2.396   6.293 -12.807  0.00  0.00    -0.274 OA
ATOM      8  C   UNL     1       4.701   5.715 -12.495  0.00  0.00    +0.086 C 
ATOM      9  C   UNL     1       5.733   6.082 -11.475  0.00  0.00    +0.017 C 
ATOM     10  C   UNL     1       7.042   5.337 -11.687  0.00  0.00    +0.001 C 
ATOM     11  C   UNL     1       7.939   6.081 -10.705  0.00  0.00    +0.000 C 
ATOM     12  C   UNL     1       7.416   7.506 -10.675  0.00  0.00    +0.000 C 
ATOM     13  C   UNL     1       6.199   7.521 -11.593  0.00  0.00    +0.001 C 
ATOM     14  C   UNL     1       5.313   5.859 -10.055  0.00  0.00    +0.086 C 
ENDBRANCH   2   5
ENDBRANCH   1   2
BRANCH   1  15
ATOM     15  C   UNL     1       1.434   6.957  -8.572  0.00  0.00    +0.019 C 
BRANCH  15  16
ATOM     16  C   UNL     1       0.866   5.835  -7.710  0.00  0.00    +0.072 C 
BRANCH  16  17
ATOM     17  N   UNL     1       1.564   5.864  -6.471  0.00  0.00    -0.270 NA
ATOM     18  C   UNL     1       1.698   4.659  -5.767  0.00  0.00    +0.094 C 
ATOM     19  C   UNL     1       3.050   4.310  -5.253  0.00  0.00    +0.111 C 
ATOM     20  N   UNL     1       3.881   5.472  -4.969  0.00  0.00    -0.275 N 
ATOM     21  C   UNL     1       4.090   5.929  -3.648  0.00  0.00    +0.220 A 
ATOM     22  N   UNL     1       4.171   4.992  -2.677  0.00  0.00    -0.212 NA
ATOM     23  C   UNL     1       4.093   5.373  -1.390  0.00  0.00    +0.103 A 
ATOM     24  C   UNL     1       4.351   6.696  -1.057  0.00  0.00    +0.041 A 
ATOM     25  C   UNL     1       4.585   7.581  -2.091  0.00  0.00    +0.103 A 
ATOM     26  N   UNL     1       4.370   7.203  -3.359  0.00  0.00    -0.212 NA
ATOM     27  C   UNL     1       3.921   6.458  -6.046  0.00  0.00    +0.111 C 
ATOM     28  C   UNL     1       2.504   6.891  -6.277  0.00  0.00    +0.094 C 
ENDBRANCH  16  17
ENDBRANCH  15  16
ENDBRANCH   1  15
TORSDOF 5
ENDMDL
MODEL 3
REMARK VINA RESULT:      -8.3      3.986      6.144
REMARK  Name = 
REMARK  5 active torsions:
REMARK  status: ('A' for Active; 'I' for Inactive)
REMARK    1  A    between atoms: N_12  and  C_13
REMARK    2  A    between atoms: C_13  and  C_14
REMARK    3  A    between atoms: C_14  and  C_15
REMARK    4  A    between atoms: C_15  and  C_16
REMARK    5  A    between atoms: C_16  and  N_17
REMARK                            x       y       z     vdW  Elec       q    Type
REMARK                         _______ _______ _______ _____ _____    ______ ____
ROOT
ATOM      1  C   UNL     1       1.052   6.247  -7.940  0.00  0.00    +0.023 C 
ENDROOT
BRANCH   1   2
ATOM      2  C   UNL     1       0.888   5.347  -6.747  0.00  0.00    +0.101 C 
BRANCH   2   5
ATOM      3  O   UNL     1       1.642   6.899  -4.506  0.00  0.00    -0.274 OA
ATOM      4  C   UNL     1       0.457   6.462  -4.519  0.00  0.00    +0.231 C 
ATOM      5  N   UNL     1       0.003   5.916  -5.762  0.00  0.00    -0.230 N 
ATOM      6  C   UNL     1      -1.408   5.669  -5.829  0.00  0.00    +0.231 C 
ATOM      7  O   UNL     1      -1.869   5.154  -6.880  0.00  0.00    -0.274 OA
ATOM      8  C   UNL     1      -2.240   6.541  -4.960  0.00  0.00    +0.086 C 
ATOM      9  C   UNL     1      -1.829   6.455  -3.523  0.00  0.00    +0.017 C 
ATOM     10  C   UNL     1      -2.250   7.682  -2.729  0.00  0.00    +0.001 C 
ATOM     11  C   UNL     1      -1.941   7.208  -1.314  0.00  0.00    +0.000 C 
ATOM     12  C   UNL     1      -2.175   5.708  -1.328  0.00  0.00    +0.000 C 
ATOM     13  C   UNL     1      -2.551   5.359  -2.763  0.00  0.00    +0.001 C 
ATOM     14  C   UNL     1      -0.359   6.262  -3.307  0.00  0.00    +0.086 C 
ENDBRANCH   2   5
ENDBRANCH   1   2
BRANCH   1  15
ATOM     15  C   UNL     1       0.928   5.420  -9.190  0.00  0.00    +0.019 C 
BRANCH  15  16
ATOM     16  C   UNL     1       1.942   4.285  -9.088  0.00  0.00    +0.072 C 
BRANCH  16  17
ATOM     17  N   UNL     1       3.100   4.690  -9.805  0.00  0.00    -0.270 NA
ATOM     18  C   UNL     1       2.927   5.576 -10.879  0.00  0.00    +0.094 C 
ATOM     19  C   UNL     1       3.828   6.759 -10.945  0.00  0.00    +0.111 C 
ATOM     20  N   UNL     1       5.125   6.537 -10.321  0.00  0.00    -0.275 N 
ATOM     21  C   UNL     1       6.285   6.290 -11.091  0.00  0.00    +0.220 A 
ATOM     22  N   UNL     1       6.389   6.936 -12.274  0.00  0.00    -0.212 NA
ATOM     23  C   UNL     1       7.319   6.535 -13.159  0.00  0.00    +0.103 A 
ATOM     24  C   UNL     1       8.402   5.787 -12.714  0.00  0.00    +0.041 A 
ATOM     25  C   UNL     1       8.414   5.410 -11.387  0.00  0.00    +0.103 A 
ATOM     26  N   UNL     1       7.326   5.594 -10.626  0.00  0.00    -0.212 NA
ATOM     27  C   UNL     1       5.055   5.953  -8.985  0.00  0.00    +0.111 C 
ATOM     28  C   UNL     1       4.333   4.647  -9.131  0.00  0.00    +0.094 C 
ENDBRANCH  16  17
ENDBRANCH  15  16
ENDBRANCH   1  15
TORSDOF 5
ENDMDL
MODEL 4
REMARK VINA RESULT:      -8.1      4.319      8.736
REMARK  Name = 
REMARK  5 active torsions:
REMARK  status: ('A' for Active; 'I' for Inactive)
REMARK    1  A    between atoms: N_12  and  C_13
REMARK    2  A    between atoms: C_13  and  C_14
REMARK    3  A    between atoms: C_14  and  C_15
REMARK    4  A    between atoms: C_15  and  C_16
REMARK    5  A    between atoms: C_16  and  N_17
REMARK                            x       y       z     vdW  Elec       q    Type
REMARK                         _______ _______ _______ _____ _____    ______ ____
ROOT
ATOM      1  C   UNL     1       1.212   6.510  -9.332  0.00  0.00    +0.023 C 
ENDROOT
BRANCH   1   2
ATOM      2  C   UNL     1       1.584   5.278 -10.110  0.00  0.00    +0.101 C 
BRANCH   2   5
ATOM      3  O   UNL     1       3.897   4.141  -8.946  0.00  0.00    -0.274 OA
ATOM      4  C   UNL     1       4.084   4.989  -9.862  0.00  0.00    +0.231 C 
ATOM      5  N   UNL     1       2.928   5.353 -10.625  0.00  0.00    -0.230 N 
ATOM      6  C   UNL     1       3.206   6.107 -11.812  0.00  0.00    +0.231 C 
ATOM      7  O   UNL     1       2.233   6.493 -12.510  0.00  0.00    -0.274 OA
ATOM      8  C   UNL     1       4.545   5.865 -12.411  0.00  0.00    +0.086 C 
ATOM      9  C   UNL     1       5.649   6.125 -11.435  0.00  0.00    +0.017 C 
ATOM     10  C   UNL     1       6.928   5.389 -11.803  0.00  0.00    +0.001 C 
ATOM     11  C   UNL     1       7.902   6.029 -10.821  0.00  0.00    +0.000 C 
ATOM     12  C   UNL     1       7.406   7.451 -10.625  0.00  0.00    +0.000 C 
ATOM     13  C   UNL     1       6.130   7.564 -11.452  0.00  0.00    +0.001 C 
ATOM     14  C   UNL     1       5.322   5.775 -10.016  0.00  0.00    +0.086 C 
ENDBRANCH   2   5
ENDBRANCH   1   2
BRANCH   1  15
ATOM     15  C   UNL     1       1.099   6.148  -7.877  0.00  0.00    +0.019 C 
BRANCH  15  16
ATOM     16  C   UNL     1       2.163   6.940  -7.125  0.00  0.00    +0.072 C 
BRANCH  16  17
ATOM     17  N   UNL     1       1.840   6.869  -5.743  0.00  0.00    -0.270 NA
ATOM     18  C   UNL     1       0.630   6.256  -5.384  0.00  0.00    +0.094 C 
ATOM     19  C   UNL     1       0.670   5.247  -4.291  0.00  0.00    +0.111 C 
ATOM     20  N   UNL     1       1.742   5.473  -3.330  0.00  0.00    -0.275 N 
ATOM     21  C   UNL     1       1.492   6.043  -2.061  0.00  0.00    +0.220 A 
ATOM     22  N   UNL     1       0.326   5.721  -1.460  0.00  0.00    -0.212 NA
ATOM     23  C   UNL     1      -0.083   6.437  -0.398  0.00  0.00    +0.103 A 
ATOM     24  C   UNL     1       0.845   7.186   0.314  0.00  0.00    +0.041 A 
ATOM     25  C   UNL     1       2.136   7.230  -0.171  0.00  0.00    +0.103 A 
ATOM     26  N   UNL     1       2.415   6.731  -1.384  0.00  0.00    -0.212 NA
ATOM     27  C   UNL     1       3.051   5.703  -3.937  0.00  0.00    +0.111 C 
ATOM     28  C   UNL     1       2.901   6.904  -4.823  0.00  0.00    +0.094 C 
ENDBRANCH  16  17
ENDBRANCH  15  16
ENDBRANCH   1  15
TORSDOF 5
ENDMDL
MODEL 5
REMARK VINA RESULT:      -8.1      2.185      5.648
REMARK  Name = 
REMARK  5 active torsions:
REMARK  status: ('A' for Active; 'I' for Inactive)
REMARK    1  A    between atoms: N_12  and  C_13
REMARK    2  A    between atoms: C_13  and  C_14
REMARK    3  A    between atoms: C_14  and  C_15
REMARK    4  A    between atoms: C_15  and  C_16
REMARK    5  A    between atoms: C_16  and  N_17
REMARK                            x       y       z     vdW  Elec       q    Type
REMARK                         _______ _______ _______ _____ _____    ______ ____
ROOT
ATOM      1  C   UNL     1       4.238   6.449  -6.111  0.00  0.00    +0.023 C 
ENDROOT
BRANCH   1   2
ATOM      2  C   UNL     1       3.405   5.622  -7.050  0.00  0.00    +0.101 C 
BRANCH   2   5
ATOM      3  O   UNL     1       1.792   7.926  -7.347  0.00  0.00    -0.274 OA
ATOM      4  C   UNL     1       1.303   6.977  -6.674  0.00  0.00    +0.231 C 
ATOM      5  N   UNL     1       1.998   5.728  -6.754  0.00  0.00    -0.230 N 
ATOM      6  C   UNL     1       1.290   4.611  -6.201  0.00  0.00    +0.231 C 
ATOM      7  O   UNL     1       1.859   3.489  -6.204  0.00  0.00    -0.274 OA
ATOM      8  C   UNL     1      -0.191   4.731  -6.224  0.00  0.00    +0.086 C 
ATOM      9  C   UNL     1      -0.663   5.965  -5.521  0.00  0.00    +0.017 C 
ATOM     10  C   UNL     1      -2.045   6.399  -5.983  0.00  0.00    +0.001 C 
ATOM     11  C   UNL     1      -2.351   7.475  -4.949  0.00  0.00    +0.000 C 
ATOM     12  C   UNL     1      -1.647   7.031  -3.679  0.00  0.00    +0.000 C 
ATOM     13  C   UNL     1      -0.910   5.747  -4.040  0.00  0.00    +0.001 C 
ATOM     14  C   UNL     1       0.249   7.147  -5.657  0.00  0.00    +0.086 C 
ENDBRANCH   2   5
ENDBRANCH   1   2
BRANCH   1  15
ATOM     15  C   UNL     1       4.395   5.699  -4.817  0.00  0.00    +0.019 C 
BRANCH  15  16
ATOM     16  C   UNL     1       4.733   6.720  -3.736  0.00  0.00    +0.072 C 
BRANCH  16  17
ATOM     17  N   UNL     1       3.579   6.864  -2.918  0.00  0.00    -0.270 NA
ATOM     18  C   UNL     1       2.597   5.865  -2.991  0.00  0.00    +0.094 C 
ATOM     19  C   UNL     1       2.078   5.318  -1.709  0.00  0.00    +0.111 C 
ATOM     20  N   UNL     1       2.142   6.265  -0.604  0.00  0.00    -0.275 N 
ATOM     21  C   UNL     1       0.993   6.953  -0.150  0.00  0.00    +0.220 A 
ATOM     22  N   UNL     1      -0.180   6.282  -0.182  0.00  0.00    -0.212 NA
ATOM     23  C   UNL     1      -1.329   6.964  -0.027  0.00  0.00    +0.103 A 
ATOM     24  C   UNL     1      -1.299   8.219   0.567  0.00  0.00    +0.041 A 
ATOM     25  C   UNL     1      -0.063   8.745   0.884  0.00  0.00    +0.103 A 
ATOM     26  N   UNL     1       1.054   8.146   0.448  0.00  0.00    -0.212 NA
ATOM     27  C   UNL     1       3.436   6.925  -0.456  0.00  0.00    +0.111 C 
ATOM     28  C   UNL     1       3.700   7.635  -1.750  0.00  0.00    +0.094 C 
ENDBRANCH  16  17
ENDBRANCH  15  16
ENDBRANCH   1  15
TORSDOF 5
ENDMDL
MODEL 6
REMARK VINA RESULT:      -8.0      3.053      4.957
REMARK  Name = 
REMARK  5 active torsions:
REMARK  status: ('A' for Active; 'I' for Inactive)
REMARK    1  A    between atoms: N_12  and  C_13
REMARK    2  A    between atoms: C_13  and  C_14
REMARK    3  A    between atoms: C_14  and  C_15
REMARK    4  A    between atoms: C_15  and  C_16
REMARK    5  A    between atoms: C_16  and  N_17
REMARK                            x       y       z     vdW  Elec       q    Type
REMARK                         _______ _______ _______ _____ _____    ______ ____
ROOT
ATOM      1  C   UNL     1       3.947   6.529  -4.855  0.00  0.00    +0.023 C 
ENDROOT
BRANCH   1   2
ATOM      2  C   UNL     1       3.366   5.206  -4.440  0.00  0.00    +0.101 C 
BRANCH   2   5
ATOM      3  O   UNL     1       1.329   3.901  -5.905  0.00  0.00    -0.274 OA
ATOM      4  C   UNL     1       0.963   4.827  -5.128  0.00  0.00    +0.231 C 
ATOM      5  N   UNL     1       1.948   5.293  -4.200  0.00  0.00    -0.230 N 
ATOM      6  C   UNL     1       1.442   6.149  -3.167  0.00  0.00    +0.231 C 
ATOM      7  O   UNL     1       2.259   6.626  -2.339  0.00  0.00    -0.274 OA
ATOM      8  C   UNL     1       0.015   5.930  -2.813  0.00  0.00    +0.086 C 
ATOM      9  C   UNL     1      -0.884   6.066  -4.001  0.00  0.00    +0.017 C 
ATOM     10  C   UNL     1      -2.204   5.334  -3.812  0.00  0.00    +0.001 C 
ATOM     11  C   UNL     1      -2.977   5.851  -5.020  0.00  0.00    +0.000 C 
ATOM     12  C   UNL     1      -2.463   7.261  -5.258  0.00  0.00    +0.000 C 
ATOM     13  C   UNL     1      -1.371   7.486  -4.218  0.00  0.00    +0.001 C 
ATOM     14  C   UNL     1      -0.288   5.592  -5.291  0.00  0.00    +0.086 C 
ENDBRANCH   2   5
ENDBRANCH   1   2
BRANCH   1  15
ATOM     15  C   UNL     1       3.565   6.797  -6.284  0.00  0.00    +0.019 C 
BRANCH  15  16
ATOM     16  C   UNL     1       4.216   5.718  -7.142  0.00  0.00    +0.072 C 
BRANCH  16  17
ATOM     17  N   UNL     1       3.511   5.679  -8.376  0.00  0.00    -0.270 NA
ATOM     18  C   UNL     1       3.179   4.422  -8.901  0.00  0.00    +0.094 C 
ATOM     19  C   UNL     1       1.781   4.220  -9.368  0.00  0.00    +0.111 C 
ATOM     20  N   UNL     1       1.137   5.446  -9.821  0.00  0.00    -0.275 N 
ATOM     21  C   UNL     1       0.980   5.737 -11.195  0.00  0.00    +0.220 A 
ATOM     22  N   UNL     1       0.738   4.696 -12.022  0.00  0.00    -0.212 NA
ATOM     23  C   UNL     1       0.854   4.873 -13.350  0.00  0.00    +0.103 A 
ATOM     24  C   UNL     1       0.799   6.159 -13.870  0.00  0.00    +0.041 A 
ATOM     25  C   UNL     1       0.723   7.207 -12.975  0.00  0.00    +0.103 A 
ATOM     26  N   UNL     1       0.898   6.984 -11.665  0.00  0.00    -0.212 NA
ATOM     27  C   UNL     1       1.269   6.568  -8.896  0.00  0.00    +0.111 C 
ATOM     28  C   UNL     1       2.739   6.802  -8.721  0.00  0.00    +0.094 C 
ENDBRANCH  16  17
ENDBRANCH  15  16
ENDBRANCH   1  15
TORSDOF 5
ENDMDL
MODEL 7
REMARK VINA RESULT:      -8.0      4.908      9.013
REMARK  Name = 
REMARK  5 active torsions:
REMARK  status: ('A' for Active; 'I' for Inactive)
REMARK    1  A    between atoms: N_12  and  C_13
REMARK    2  A    between atoms: C_13  and  C_14
REMARK    3  A    between atoms: C_14  and  C_15
REMARK    4  A    between atoms: C_15  and  C_16
REMARK    5  A    between atoms: C_16  and  N_17
REMARK                            x       y       z     vdW  Elec       q    Type
REMARK                         _______ _______ _______ _____ _____    ______ ____
ROOT
ATOM      1  C   UNL     1       3.450   5.995  -7.832  0.00  0.00    +0.023 C 
ENDROOT
BRANCH   1   2
ATOM      2  C   UNL     1       4.126   5.006  -8.741  0.00  0.00    +0.101 C 
BRANCH   2   5
ATOM      3  O   UNL     1       3.030   6.068 -11.122  0.00  0.00    -0.274 OA
ATOM      4  C   UNL     1       4.285   5.935 -11.087  0.00  0.00    +0.231 C 
ATOM      5  N   UNL     1       4.852   5.659  -9.801  0.00  0.00    -0.230 N 
ATOM      6  C   UNL     1       6.279   5.770  -9.738  0.00  0.00    +0.231 C 
ATOM      7  O   UNL     1       6.846   5.503  -8.647  0.00  0.00    -0.274 OA
ATOM      8  C   UNL     1       6.880   6.714 -10.716  0.00  0.00    +0.086 C 
ATOM      9  C   UNL     1       6.510   6.371 -12.125  0.00  0.00    +0.017 C 
ATOM     10  C   UNL     1       6.625   7.566 -13.058  0.00  0.00    +0.001 C 
ATOM     11  C   UNL     1       6.449   6.876 -14.405  0.00  0.00    +0.000 C 
ATOM     12  C   UNL     1       7.040   5.488 -14.232  0.00  0.00    +0.000 C 
ATOM     13  C   UNL     1       7.482   5.404 -12.775  0.00  0.00    +0.001 C 
ATOM     14  C   UNL     1       5.133   5.804 -12.287  0.00  0.00    +0.086 C 
ENDBRANCH   2   5
ENDBRANCH   1   2
BRANCH   1  15
ATOM     15  C   UNL     1       3.971   5.803  -6.435  0.00  0.00    +0.019 C 
BRANCH  15  16
ATOM     16  C   UNL     1       3.291   4.564  -5.861  0.00  0.00    +0.072 C 
BRANCH  16  17
ATOM     17  N   UNL     1       2.087   4.996  -5.241  0.00  0.00    -0.270 NA
ATOM     18  C   UNL     1       2.097   6.237  -4.586  0.00  0.00    +0.094 C 
ATOM     19  C   UNL     1       0.980   7.176  -4.877  0.00  0.00    +0.111 C 
ATOM     20  N   UNL     1      -0.258   6.507  -5.257  0.00  0.00    -0.275 N 
ATOM     21  C   UNL     1      -1.332   6.365  -4.349  0.00  0.00    +0.220 A 
ATOM     22  N   UNL     1      -1.543   7.379  -3.481  0.00  0.00    -0.212 NA
ATOM     23  C   UNL     1      -2.360   7.183  -2.431  0.00  0.00    +0.103 A 
ATOM     24  C   UNL     1      -3.279   6.142  -2.471  0.00  0.00    +0.041 A 
ATOM     25  C   UNL     1      -3.237   5.296  -3.561  0.00  0.00    +0.103 A 
ATOM     26  N   UNL     1      -2.220   5.372  -4.431  0.00  0.00    -0.212 NA
ATOM     27  C   UNL     1      -0.094   5.485  -6.287  0.00  0.00    +0.111 C 
ATOM     28  C   UNL     1       0.877   4.483  -5.738  0.00  0.00    +0.094 C 
ENDBRANCH  16  17
ENDBRANCH  15  16
ENDBRANCH   1  15
TORSDOF 5
ENDMDL
MODEL 8
REMARK VINA RESULT:      -7.9      4.450      8.996
REMARK  Name = 
REMARK  5 active torsions:
REMARK  status: ('A' for Active; 'I' for Inactive)
REMARK    1  A    between atoms: N_12  and  C_13
REMARK    2  A    between atoms: C_13  and  C_14
REMARK    3  A    between atoms: C_14  and  C_15
REMARK    4  A    between atoms: C_15  and  C_16
REMARK    5  A    between atoms: C_16  and  N_17
REMARK                            x       y       z     vdW  Elec       q    Type
REMARK                         _______ _______ _______ _____ _____    ______ ____
ROOT
ATOM      1  C   UNL     1       1.328   6.328  -9.364  0.00  0.00    +0.023 C 
ENDROOT
BRANCH   1   2
ATOM      2  C   UNL     1       1.683   5.206 -10.299  0.00  0.00    +0.101 C 
BRANCH   2   5
ATOM      3  O   UNL     1       3.978   4.176  -9.008  0.00  0.00    -0.274 OA
ATOM      4  C   UNL     1       4.178   4.999  -9.945  0.00  0.00    +0.231 C 
ATOM      5  N   UNL     1       3.044   5.304 -10.764  0.00  0.00    -0.230 N 
ATOM      6  C   UNL     1       3.347   6.026 -11.964  0.00  0.00    +0.231 C 
ATOM      7  O   UNL     1       2.393   6.361 -12.712  0.00  0.00    -0.274 OA
ATOM      8  C   UNL     1       4.715   5.805 -12.502  0.00  0.00    +0.086 C 
ATOM      9  C   UNL     1       5.772   6.128 -11.494  0.00  0.00    +0.017 C 
ATOM     10  C   UNL     1       7.085   5.418 -11.787  0.00  0.00    +0.001 C 
ATOM     11  C   UNL     1       8.000   6.119 -10.790  0.00  0.00    +0.000 C 
ATOM     12  C   UNL     1       7.457   7.531 -10.661  0.00  0.00    +0.000 C 
ATOM     13  C   UNL     1       6.213   7.579 -11.541  0.00  0.00    +0.001 C 
ATOM     14  C   UNL     1       5.398   5.816 -10.077  0.00  0.00    +0.086 C 
ENDBRANCH   2   5
ENDBRANCH   1   2
BRANCH   1  15
ATOM     15  C   UNL     1       0.228   5.866  -8.449  0.00  0.00    +0.019 C 
BRANCH  15  16
ATOM     16  C   UNL     1       0.805   4.771  -7.558  0.00  0.00    +0.072 C 
BRANCH  16  17
ATOM     17  N   UNL     1       0.391   5.052  -6.228  0.00  0.00    -0.270 NA
ATOM     18  C   UNL     1       1.339   4.908  -5.204  0.00  0.00    +0.094 C 
ATOM     19  C   UNL     1       1.461   6.017  -4.220  0.00  0.00    +0.111 C 
ATOM     20  N   UNL     1       0.227   6.769  -4.036  0.00  0.00    -0.275 N 
ATOM     21  C   UNL     1      -0.596   6.578  -2.903  0.00  0.00    +0.220 A 
ATOM     22  N   UNL     1       0.022   6.313  -1.730  0.00  0.00    -0.212 NA
ATOM     23  C   UNL     1      -0.706   5.856  -0.695  0.00  0.00    +0.103 A 
ATOM     24  C   UNL     1      -2.080   6.056  -0.690  0.00  0.00    +0.041 A 
ATOM     25  C   UNL     1      -2.644   6.637  -1.808  0.00  0.00    +0.103 A 
ATOM     26  N   UNL     1      -1.911   6.809  -2.917  0.00  0.00    -0.212 NA
ATOM     27  C   UNL     1      -0.413   7.184  -5.282  0.00  0.00    +0.111 C 
ATOM     28  C   UNL     1      -0.693   5.929  -6.053  0.00  0.00    +0.094 C 
ENDBRANCH  16  17
ENDBRANCH  15  16
ENDBRANCH   1  15
TORSDOF 5
ENDMDL
MODEL 9
REMARK VINA RESULT:      -7.7      3.876      6.968
REMARK  Name = 
REMARK  5 active torsions:
REMARK  status: ('A' for Active; 'I' for Inactive)
REMARK    1  A    between atoms: N_12  and  C_13
REMARK    2  A    between atoms: C_13  and  C_14
REMARK    3  A    between atoms: C_14  and  C_15
REMARK    4  A    between atoms: C_15  and  C_16
REMARK    5  A    between atoms: C_16  and  N_17
REMARK                            x       y       z     vdW  Elec       q    Type
REMARK                         _______ _______ _______ _____ _____    ______ ____
ROOT
ATOM      1  C   UNL     1       0.644   6.159  -8.108  0.00  0.00    +0.023 C 
ENDROOT
BRANCH   1   2
ATOM      2  C   UNL     1       0.385   5.193  -6.986  0.00  0.00    +0.101 C 
BRANCH   2   5
ATOM      3  O   UNL     1       0.260   7.276  -5.077  0.00  0.00    -0.274 OA
ATOM      4  C   UNL     1       1.331   6.607  -5.115  0.00  0.00    +0.231 C 
ATOM      5  N   UNL     1       1.289   5.398  -5.881  0.00  0.00    -0.230 N 
ATOM      6  C   UNL     1       2.417   4.533  -5.700  0.00  0.00    +0.231 C 
ATOM      7  O   UNL     1       2.463   3.471  -6.371  0.00  0.00    -0.274 OA
ATOM      8  C   UNL     1       3.091   4.648  -4.380  0.00  0.00    +0.086 C 
ATOM      9  C   UNL     1       3.538   6.048  -4.100  0.00  0.00    +0.017 C 
ATOM     10  C   UNL     1       3.711   6.311  -2.612  0.00  0.00    +0.001 C 
ATOM     11  C   UNL     1       4.395   7.672  -2.655  0.00  0.00    +0.000 C 
ATOM     12  C   UNL     1       5.221   7.672  -3.929  0.00  0.00    +0.000 C 
ATOM     13  C   UNL     1       4.939   6.336  -4.607  0.00  0.00    +0.001 C 
ATOM     14  C   UNL     1       2.633   7.112  -4.643  0.00  0.00    +0.086 C 
ENDBRANCH   2   5
ENDBRANCH   1   2
BRANCH   1  15
ATOM     15  C   UNL     1       0.572   5.415  -9.413  0.00  0.00    +0.019 C 
BRANCH  15  16
ATOM     16  C   UNL     1       1.563   4.259  -9.333  0.00  0.00    +0.072 C 
BRANCH  16  17
ATOM     17  N   UNL     1       2.761   4.688  -9.967  0.00  0.00    -0.270 NA
ATOM     18  C   UNL     1       2.655   5.644 -10.987  0.00  0.00    +0.094 C 
ATOM     19  C   UNL     1       3.576   6.811 -10.933  0.00  0.00    +0.111 C 
ATOM     20  N   UNL     1       4.838   6.525 -10.264  0.00  0.00    -0.275 N 
ATOM     21  C   UNL     1       6.030   6.306 -10.993  0.00  0.00    +0.220 A 
ATOM     22  N   UNL     1       6.201   7.025 -12.124  0.00  0.00    -0.212 NA
ATOM     23  C   UNL     1       7.167   6.665 -12.989  0.00  0.00    +0.103 A 
ATOM     24  C   UNL     1       8.214   5.869 -12.544  0.00  0.00    +0.041 A 
ATOM     25  C   UNL     1       8.156   5.406 -11.246  0.00  0.00    +0.103 A 
ATOM     26  N   UNL     1       7.035   5.561 -10.526  0.00  0.00    -0.212 NA
ATOM     27  C   UNL     1       4.694   5.856  -8.974  0.00  0.00    +0.111 C 
ATOM     28  C   UNL     1       3.959   4.577  -9.240  0.00  0.00    +0.094 C 
ENDBRANCH  16  17
ENDBRANCH  15  16
ENDBRANCH   1  15
TORSDOF 5
ENDMDL
