MODEL 1
REMARK VINA RESULT:      -6.9      0.000      0.000
REMARK  Name = 
REMARK  8 active torsions:
REMARK  status: ('A' for Active; 'I' for Inactive)
REMARK    1  A    between atoms: C_2  and  C_4
REMARK    2  A    between atoms: C_4  and  N_5
REMARK    3  A    between atoms: N_8  and  C_9
REMARK    4  A    between atoms: C_9  and  C_10
REMARK    5  A    between atoms: N_15  and  C_16
REMARK    6  A    between atoms: C_16  and  C_17
REMARK    7  A    between atoms: N_22  and  C_23
REMARK    8  A    between atoms: C_23  and  C_24
REMARK                            x       y       z     vdW  Elec       q    Type
REMARK                         _______ _______ _______ _____ _____    ______ ____
ROOT
ATOM      1  N   UNL     1      -0.080   5.340  -5.487  0.00  0.00    -0.268 NA
ATOM      2  C   UNL     1       1.087   6.202  -5.472  0.00  0.00    +0.090 C 
ATOM      3  C   UNL     1       1.931   5.860  -4.271  0.00  0.00    +0.090 C 
ATOM      4  N   UNL     1       3.338   5.838  -4.601  0.00  0.00    -0.261 NA
ATOM      5  C   UNL     1       3.498   5.108  -5.857  0.00  0.00    +0.090 C 
ATOM      6  C   UNL     1       4.279   5.995  -6.782  0.00  0.00    +0.090 C 
ATOM      7  N   UNL     1       4.300   5.565  -8.144  0.00  0.00    -0.261 NA
ATOM      8  C   UNL     1       3.165   4.802  -8.562  0.00  0.00    +0.090 C 
ATOM      9  C   UNL     1       2.163   5.722  -9.247  0.00  0.00    +0.090 C 
ATOM     10  N   UNL     1       0.862   5.233  -8.891  0.00  0.00    -0.261 NA
ATOM     11  C   UNL     1       0.215   5.958  -7.837  0.00  0.00    +0.090 C 
ATOM     12  C   UNL     1      -0.335   4.929  -6.865  0.00  0.00    +0.090 C 
ENDROOT
BRANCH   1  13
ATOM     13  C   UNL     1      -1.287   6.046  -5.060  0.00  0.00    +0.105 C 
BRANCH  13  15
ATOM     14  C   UNL     1      -3.051   5.276  -3.619  0.00  0.00    +0.037 C 
ATOM     15  C   UNL     1      -1.402   5.560  -3.453  0.00  0.00    +0.168 C 
ATOM     16  O   UNL     1      -1.663   7.016  -2.996  0.00  0.00    -0.222 OA
ENDBRANCH  13  15
ENDBRANCH   1  13
BRANCH   4  17
ATOM     17  C   UNL     1       3.775   7.226  -4.748  0.00  0.00    +0.188 C 
BRANCH  17  18
ATOM     18  C   UNL     1       4.536   7.580  -3.517  0.00  0.00    +0.381 C 
ATOM     19  O   UNL     1       3.978   8.392  -2.526  0.00  0.00    -0.244 OA
ATOM     20  O   UNL     1       5.777   7.409  -3.478  0.00  0.00    -0.244 OA
ENDBRANCH  17  18
ENDBRANCH   4  17
BRANCH  10  21
ATOM     21  C   UNL     1       0.022   4.913 -10.006  0.00  0.00    +0.188 C 
BRANCH  21  22
ATOM     22  C   UNL     1       0.203   5.895 -11.119  0.00  0.00    +0.381 C 
ATOM     23  O   UNL     1      -0.488   7.107 -11.068  0.00  0.00    -0.244 OA
ATOM     24  O   UNL     1       0.542   5.452 -12.243  0.00  0.00    -0.244 OA
ENDBRANCH  21  22
ENDBRANCH  10  21
BRANCH   7  25
ATOM     25  C   UNL     1       5.521   4.911  -8.543  0.00  0.00    +0.188 C 
BRANCH  25  26
ATOM     26  C   UNL     1       6.267   5.770  -9.505  0.00  0.00    +0.381 C 
ATOM     27  O   UNL     1       5.547   6.400 -10.505  0.00  0.00    -0.244 OA
ATOM     28  O   UNL     1       7.463   6.078  -9.325  0.00  0.00    -0.244 OA
ENDBRANCH  25  26
ENDBRANCH   7  25
TORSDOF 8
ENDMDL
MODEL 2
REMARK VINA RESULT:      -6.7      1.694      8.006
REMARK  Name = 
REMARK  8 active torsions:
REMARK  status: ('A' for Active; 'I' for Inactive)
REMARK    1  A    between atoms: C_2  and  C_4
REMARK    2  A    between atoms: C_4  and  N_5
REMARK    3  A    between atoms: N_8  and  C_9
REMARK    4  A    between atoms: C_9  and  C_10
REMARK    5  A    between atoms: N_15  and  C_16
REMARK    6  A    between atoms: C_16  and  C_17
REMARK    7  A    between atoms: N_22  and  C_23
REMARK    8  A    between atoms: C_23  and  C_24
REMARK                            x       y       z     vdW  Elec       q    Type
REMARK                         _______ _______ _______ _____ _____    ______ ____
ROOT
ATOM      1  N   UNL     1       4.913   5.327  -9.669  0.00  0.00    -0.268 NA
ATOM      2  C   UNL     1       3.707   6.126  -9.782  0.00  0.00    +0.090 C 
ATOM      3  C   UNL     1       2.916   5.650 -10.973  0.00  0.00    +0.090 C 
ATOM      4  N   UNL     1       1.502   5.584 -10.679  0.00  0.00    -0.261 NA
ATOM      5  C   UNL     1       1.340   4.945  -9.374  0.00  0.00    +0.090 C 
ATOM      6  C   UNL     1       0.491   5.860  -8.542  0.00  0.00    +0.090 C 
ATOM      7  N   UNL     1       0.450   5.536  -7.152  0.00  0.00    -0.261 NA
ATOM      8  C   UNL     1       1.608   4.866  -6.646  0.00  0.00    +0.090 C 
ATOM      9  C   UNL     1       2.544   5.885  -6.010  0.00  0.00    +0.090 C 
ATOM     10  N   UNL     1       3.877   5.436  -6.293  0.00  0.00    -0.261 NA
ATOM     11  C   UNL     1       4.519   6.109  -7.383  0.00  0.00    +0.090 C 
ATOM     12  C   UNL     1       5.146   5.037  -8.256  0.00  0.00    +0.090 C 
ENDROOT
BRANCH   1  13
ATOM     13  C   UNL     1       6.097   6.058 -10.119  0.00  0.00    +0.105 C 
BRANCH  13  15
ATOM     14  C   UNL     1       7.985   5.561 -11.521  0.00  0.00    +0.037 C 
ATOM     15  C   UNL     1       6.316   5.415 -11.658  0.00  0.00    +0.168 C 
ATOM     16  O   UNL     1       6.209   6.820 -12.298  0.00  0.00    -0.222 OA
ENDBRANCH  13  15
ENDBRANCH   1  13
BRANCH   4  17
ATOM     17  C   UNL     1       0.995   6.955 -10.653  0.00  0.00    +0.188 C 
BRANCH  17  18
ATOM     18  C   UNL     1       0.059   7.099 -11.803  0.00  0.00    +0.381 C 
ATOM     19  O   UNL     1       0.501   6.968 -13.121  0.00  0.00    -0.244 OA
ATOM     20  O   UNL     1      -1.065   7.628 -11.631  0.00  0.00    -0.244 OA
ENDBRANCH  17  18
ENDBRANCH   4  17
BRANCH  10  21
ATOM     21  C   UNL     1       4.698   5.245  -5.135  0.00  0.00    +0.188 C 
BRANCH  21  22
ATOM     22  C   UNL     1       4.524   6.364  -4.158  0.00  0.00    +0.381 C 
ATOM     23  O   UNL     1       5.204   7.564  -4.378  0.00  0.00    -0.244 OA
ATOM     24  O   UNL     1       4.202   6.072  -2.981  0.00  0.00    -0.244 OA
ENDBRANCH  21  22
ENDBRANCH  10  21
BRANCH   7  25
ATOM     25  C   UNL     1      -0.750   4.855  -6.735  0.00  0.00    +0.188 C 
BRANCH  25  26
ATOM     26  C   UNL     1      -1.658   5.807  -6.037  0.00  0.00    +0.381 C 
ATOM     27  O   UNL     1      -1.134   6.569  -5.008  0.00  0.00    -0.244 OA
ATOM     28  O   UNL     1      -2.802   6.064  -6.468  0.00  0.00    -0.244 OA
ENDBRANCH  25  26
ENDBRANCH   7  25
TORSDOF 8
ENDMDL
MODEL 3
REMARK VINA RESULT:      -6.7      2.040      5.768
REMARK  Name = 
REMARK  8 active torsions:
REMARK  status: ('A' for Active; 'I' for Inactive)
REMARK    1  A    between atoms: C_2  and  C_4
REMARK    2  A    between atoms: C_4  and  N_5
REMARK    3  A    between atoms: N_8  and  C_9
REMARK    4  A    between atoms: C_9  and  C_10
REMARK    5  A    between atoms: N_15  and  C_16
REMARK    6  A    between atoms: C_16  and  C_17
REMARK    7  A    between atoms: N_22  and  C_23
REMARK    8  A    between atoms: C_23  and  C_24
REMARK                            x       y       z     vdW  Elec       q    Type
REMARK                         _______ _______ _______ _____ _____    ______ ____
ROOT
ATOM      1  N   UNL     1       3.857   5.233  -6.809  0.00  0.00    -0.268 NA
ATOM      2  C   UNL     1       3.924   6.100  -7.969  0.00  0.00    +0.090 C 
ATOM      3  C   UNL     1       5.097   5.687  -8.820  0.00  0.00    +0.090 C 
ATOM      4  N   UNL     1       4.763   5.698 -10.226  0.00  0.00    -0.261 NA
ATOM      5  C   UNL     1       3.461   5.052 -10.387  0.00  0.00    +0.090 C 
ATOM      6  C   UNL     1       2.593   6.003 -11.157  0.00  0.00    +0.090 C 
ATOM      7  N   UNL     1       1.206   5.663 -11.177  0.00  0.00    -0.261 NA
ATOM      8  C   UNL     1       0.743   4.920 -10.046  0.00  0.00    +0.090 C 
ATOM      9  C   UNL     1       0.123   5.876  -9.034  0.00  0.00    +0.090 C 
ATOM     10  N   UNL     1       0.450   5.354  -7.738  0.00  0.00    -0.261 NA
ATOM     11  C   UNL     1       1.551   6.004  -7.090  0.00  0.00    +0.090 C 
ATOM     12  C   UNL     1       2.456   4.910  -6.551  0.00  0.00    +0.090 C 
ENDROOT
BRANCH   1  13
ATOM     13  C   UNL     1       4.333   5.900  -5.598  0.00  0.00    +0.105 C 
BRANCH  13  15
ATOM     14  C   UNL     1       3.642   6.091  -3.303  0.00  0.00    +0.037 C 
ATOM     15  C   UNL     1       3.811   4.833  -4.406  0.00  0.00    +0.168 C 
ATOM     16  O   UNL     1       5.268   4.580  -3.947  0.00  0.00    -0.222 OA
ENDBRANCH  13  15
ENDBRANCH   1  13
BRANCH   4  17
ATOM     17  C   UNL     1       4.705   7.095 -10.653  0.00  0.00    +0.188 C 
BRANCH  17  18
ATOM     18  C   UNL     1       5.933   7.362 -11.453  0.00  0.00    +0.381 C 
ATOM     19  O   UNL     1       6.666   6.322 -12.028  0.00  0.00    -0.244 OA
ATOM     20  O   UNL     1       6.494   8.481 -11.381  0.00  0.00    -0.244 OA
ENDBRANCH  17  18
ENDBRANCH   4  17
BRANCH  10  21
ATOM     21  C   UNL     1      -0.680   5.101  -6.896  0.00  0.00    +0.188 C 
BRANCH  21  22
ATOM     22  C   UNL     1      -0.635   5.944  -5.662  0.00  0.00    +0.381 C 
ATOM     23  O   UNL     1      -0.286   5.346  -4.449  0.00  0.00    -0.244 OA
ATOM     24  O   UNL     1      -1.344   6.979  -5.631  0.00  0.00    -0.244 OA
ENDBRANCH  21  22
ENDBRANCH  10  21
BRANCH   7  25
ATOM     25  C   UNL     1       0.762   5.046 -12.401  0.00  0.00    +0.188 C 
BRANCH  25  26
ATOM     26  C   UNL     1       0.946   5.988 -13.540  0.00  0.00    +0.381 C 
ATOM     27  O   UNL     1       1.615   5.529 -14.661  0.00  0.00    -0.244 OA
ATOM     28  O   UNL     1       0.364   7.092 -13.585  0.00  0.00    -0.244 OA
ENDBRANCH  25  26
ENDBRANCH   7  25
TORSDOF 8
ENDMDL
MODEL 4
REMARK VINA RESULT:      -6.7      1.448      5.721
REMARK  Name = 
REMARK  8 active torsions:
REMARK  status: ('A' for Active; 'I' for Inactive)
REMARK    1  A    between atoms: C_2  and  C_4
REMARK    2  A    between atoms: C_4  and  N_5
REMARK    3  A    between atoms: N_8  and  C_9
REMARK    4  A    between atoms: C_9  and  C_10
REMARK    5  A    between atoms: N_15  and  C_16
REMARK    6  A    between atoms: C_16  and  C_17
REMARK    7  A    between atoms: N_22  and  C_23
REMARK    8  A    between atoms: C_23  and  C_24
REMARK                            x       y       z     vdW  Elec       q    Type
REMARK                         _______ _______ _______ _____ _____    ______ ____
ROOT
ATOM      1  N   UNL     1       0.699   5.222  -8.395  0.00  0.00    -0.268 NA
ATOM      2  C   UNL     1       0.637   6.053  -7.208  0.00  0.00    +0.090 C 
ATOM      3  C   UNL     1      -0.522   5.603  -6.356  0.00  0.00    +0.090 C 
ATOM      4  N   UNL     1      -0.171   5.574  -4.954  0.00  0.00    -0.261 NA
ATOM      5  C   UNL     1       1.138   4.935  -4.828  0.00  0.00    +0.090 C 
ATOM      6  C   UNL     1       2.007   5.870  -4.039  0.00  0.00    +0.090 C 
ATOM      7  N   UNL     1       3.397   5.542  -4.047  0.00  0.00    -0.261 NA
ATOM      8  C   UNL     1       3.853   4.839  -5.205  0.00  0.00    +0.090 C 
ATOM      9  C   UNL     1       4.453   5.831  -6.194  0.00  0.00    +0.090 C 
ATOM     10  N   UNL     1       4.114   5.346  -7.501  0.00  0.00    -0.261 NA
ATOM     11  C   UNL     1       3.000   6.006  -8.117  0.00  0.00    +0.090 C 
ATOM     12  C   UNL     1       2.099   4.920  -8.678  0.00  0.00    +0.090 C 
ENDROOT
BRANCH   1  13
ATOM     13  C   UNL     1       0.202   5.921  -9.579  0.00  0.00    +0.105 C 
BRANCH  13  15
ATOM     14  C   UNL     1       0.887   6.393 -11.834  0.00  0.00    +0.037 C 
ATOM     15  C   UNL     1       0.956   5.060 -10.811  0.00  0.00    +0.168 C 
ATOM     16  O   UNL     1      -0.407   4.545 -11.332  0.00  0.00    -0.222 OA
ENDBRANCH  13  15
ENDBRANCH   1  13
BRANCH   4  17
ATOM     17  C   UNL     1      -0.120   6.958  -4.486  0.00  0.00    +0.188 C 
BRANCH  17  18
ATOM     18  C   UNL     1      -1.522   7.380  -4.208  0.00  0.00    +0.381 C 
ATOM     19  O   UNL     1      -1.951   8.686  -4.454  0.00  0.00    -0.244 OA
ATOM     20  O   UNL     1      -2.256   6.668  -3.481  0.00  0.00    -0.244 OA
ENDBRANCH  17  18
ENDBRANCH   4  17
BRANCH  10  21
ATOM     21  C   UNL     1       5.237   5.129  -8.364  0.00  0.00    +0.188 C 
BRANCH  21  22
ATOM     22  C   UNL     1       5.037   5.792  -9.689  0.00  0.00    +0.381 C 
ATOM     23  O   UNL     1       4.658   5.011 -10.783  0.00  0.00    -0.244 OA
ATOM     24  O   UNL     1       5.652   6.863  -9.910  0.00  0.00    -0.244 OA
ENDBRANCH  21  22
ENDBRANCH  10  21
BRANCH   7  25
ATOM     25  C   UNL     1       3.861   4.892  -2.847  0.00  0.00    +0.188 C 
BRANCH  25  26
ATOM     26  C   UNL     1       4.049   5.898  -1.764  0.00  0.00    +0.381 C 
ATOM     27  O   UNL     1       3.772   5.513  -0.464  0.00  0.00    -0.244 OA
ATOM     28  O   UNL     1       4.614   6.992  -1.970  0.00  0.00    -0.244 OA
ENDBRANCH  25  26
ENDBRANCH   7  25
TORSDOF 8
ENDMDL
MODEL 5
REMARK VINA RESULT:      -6.5      1.751      5.759
REMARK  Name = 
REMARK  8 active torsions:
REMARK  status: ('A' for Active; 'I' for Inactive)
REMARK    1  A    between atoms: C_2  and  C_4
REMARK    2  A    between atoms: C_4  and  N_5
REMARK    3  A    between atoms: N_8  and  C_9
REMARK    4  A    between atoms: C_9  and  C_10
REMARK    5  A    between atoms: N_15  and  C_16
REMARK    6  A    between atoms: C_16  and  C_17
REMARK    7  A    between atoms: N_22  and  C_23
REMARK    8  A    between atoms: C_23  and  C_24
REMARK                            x       y       z     vdW  Elec       q    Type
REMARK                         _______ _______ _______ _____ _____    ______ ____
ROOT
ATOM      1  N   UNL     1       0.297   5.880  -7.335  0.00  0.00    -0.268 NA
ATOM      2  C   UNL     1       0.676   5.246  -8.583  0.00  0.00    +0.090 C 
ATOM      3  C   UNL     1       0.023   5.982  -9.724  0.00  0.00    +0.090 C 
ATOM      4  N   UNL     1       0.933   6.157 -10.833  0.00  0.00    -0.261 NA
ATOM      5  C   UNL     1       2.219   6.602 -10.298  0.00  0.00    +0.090 C 
ATOM      6  C   UNL     1       3.263   5.668 -10.837  0.00  0.00    +0.090 C 
ATOM      7  N   UNL     1       4.541   5.777 -10.209  0.00  0.00    -0.261 NA
ATOM      8  C   UNL     1       4.520   6.232  -8.854  0.00  0.00    +0.090 C 
ATOM      9  C   UNL     1       4.568   5.030  -7.918  0.00  0.00    +0.090 C 
ATOM     10  N   UNL     1       3.749   5.369  -6.790  0.00  0.00    -0.261 NA
ATOM     11  C   UNL     1       2.432   4.805  -6.812  0.00  0.00    +0.090 C 
ATOM     12  C   UNL     1       1.466   5.923  -6.461  0.00  0.00    +0.090 C 
ENDROOT
BRANCH   1  13
ATOM     13  C   UNL     1      -0.706   5.103  -6.608  0.00  0.00    +0.105 C 
BRANCH  13  15
ATOM     14  C   UNL     1      -1.638   5.702  -4.475  0.00  0.00    +0.037 C 
ATOM     15  C   UNL     1      -1.717   6.320  -6.037  0.00  0.00    +0.168 C 
ATOM     16  O   UNL     1      -2.973   5.469  -6.348  0.00  0.00    -0.222 OA
ENDBRANCH  13  15
ENDBRANCH   1  13
BRANCH   4  17
ATOM     17  C   UNL     1       1.067   4.863 -11.499  0.00  0.00    +0.188 C 
BRANCH  17  18
ATOM     18  C   UNL     1       0.712   5.065 -12.931  0.00  0.00    +0.381 C 
ATOM     19  O   UNL     1       0.823   4.030 -13.862  0.00  0.00    -0.244 OA
ATOM     20  O   UNL     1       0.591   6.228 -13.386  0.00  0.00    -0.244 OA
ENDBRANCH  17  18
ENDBRANCH   4  17
BRANCH  10  21
ATOM     21  C   UNL     1       4.417   5.288  -5.525  0.00  0.00    +0.188 C 
BRANCH  21  22
ATOM     22  C   UNL     1       4.770   6.648  -5.012  0.00  0.00    +0.381 C 
ATOM     23  O   UNL     1       5.541   6.752  -3.853  0.00  0.00    -0.244 OA
ATOM     24  O   UNL     1       4.011   7.602  -5.307  0.00  0.00    -0.244 OA
ENDBRANCH  21  22
ENDBRANCH  10  21
BRANCH   7  25
ATOM     25  C   UNL     1       5.517   6.514 -10.973  0.00  0.00    +0.188 C 
BRANCH  25  26
ATOM     26  C   UNL     1       6.665   5.629 -11.318  0.00  0.00    +0.381 C 
ATOM     27  O   UNL     1       6.640   4.981 -12.541  0.00  0.00    -0.244 OA
ATOM     28  O   UNL     1       7.709   5.605 -10.634  0.00  0.00    -0.244 OA
ENDBRANCH  25  26
ENDBRANCH   7  25
TORSDOF 8
ENDMDL
MODEL 6
REMARK VINA RESULT:      -6.5      2.854      6.525
REMARK  Name = 
REMARK  8 active torsions:
REMARK  status: ('A' for Active; 'I' for Inactive)
REMARK    1  A    between atoms: C_2  and  C_4
REMARK    2  A    between atoms: C_4  and  N_5
REMARK    3  A    between atoms: N_8  and  C_9
REMARK    4  A    between atoms: C_9  and  C_10
REMARK    5  A    between atoms: N_15  and  C_16
REMARK    6  A    between atoms: C_16  and  C_17
REMARK    7  A    between atoms: N_22  and  C_23
REMARK    8  A    between atoms: C_23  and  C_24
REMARK                            x       y       z     vdW  Elec       q    Type
REMARK                         _______ _______ _______ _____ _____    ______ ____
ROOT
ATOM      1  N   UNL     1       0.134   6.620  -1.549  0.00  0.00    -0.268 NA
ATOM      2  C   UNL     1       0.065   5.841  -2.771  0.00  0.00    +0.090 C 
ATOM      3  C   UNL     1      -0.697   6.625  -3.808  0.00  0.00    +0.090 C 
ATOM      4  N   UNL     1      -0.073   6.533  -5.108  0.00  0.00    -0.261 NA
ATOM      5  C   UNL     1       1.366   6.728  -4.935  0.00  0.00    +0.090 C 
ATOM      6  C   UNL     1       2.046   5.562  -5.590  0.00  0.00    +0.090 C 
ATOM      7  N   UNL     1       3.437   5.437  -5.288  0.00  0.00    -0.261 NA
ATOM      8  C   UNL     1       3.839   5.971  -4.024  0.00  0.00    +0.090 C 
ATOM      9  C   UNL     1       3.886   4.848  -2.995  0.00  0.00    +0.090 C 
ATOM     10  N   UNL     1       3.452   5.424  -1.755  0.00  0.00    -0.261 NA
ATOM     11  C   UNL     1       2.087   5.152  -1.411  0.00  0.00    +0.090 C 
ATOM     12  C   UNL     1       1.470   6.469  -0.977  0.00  0.00    +0.090 C 
ENDROOT
BRANCH   1  13
ATOM     13  C   UNL     1      -0.787   6.120  -0.529  0.00  0.00    +0.105 C 
BRANCH  13  15
ATOM     14  C   UNL     1      -2.070   6.780   1.393  0.00  0.00    +0.037 C 
ATOM     15  C   UNL     1      -0.669   7.323   0.640  0.00  0.00    +0.168 C 
ATOM     16  O   UNL     1      -1.480   8.306  -0.239  0.00  0.00    -0.222 OA
ENDBRANCH  13  15
ENDBRANCH   1  13
BRANCH   4  17
ATOM     17  C   UNL     1      -0.356   5.199  -5.637  0.00  0.00    +0.188 C 
BRANCH  17  18
ATOM     18  C   UNL     1      -1.203   5.377  -6.850  0.00  0.00    +0.381 C 
ATOM     19  O   UNL     1      -0.637   5.475  -8.123  0.00  0.00    -0.244 OA
ATOM     20  O   UNL     1      -2.398   5.736  -6.730  0.00  0.00    -0.244 OA
ENDBRANCH  17  18
ENDBRANCH   4  17
BRANCH  10  21
ATOM     21  C   UNL     1       4.384   5.284  -0.676  0.00  0.00    +0.188 C 
BRANCH  21  22
ATOM     22  C   UNL     1       4.702   6.610  -0.060  0.00  0.00    +0.381 C 
ATOM     23  O   UNL     1       4.363   6.831   1.276  0.00  0.00    -0.244 OA
ATOM     24  O   UNL     1       4.796   7.603  -0.821  0.00  0.00    -0.244 OA
ENDBRANCH  21  22
ENDBRANCH  10  21
BRANCH   7  25
ATOM     25  C   UNL     1       4.316   5.900  -6.333  0.00  0.00    +0.188 C 
BRANCH  25  26
ATOM     26  C   UNL     1       3.700   5.645  -7.665  0.00  0.00    +0.381 C 
ATOM     27  O   UNL     1       3.278   6.736  -8.406  0.00  0.00    -0.244 OA
ATOM     28  O   UNL     1       3.723   4.517  -8.198  0.00  0.00    -0.244 OA
ENDBRANCH  25  26
ENDBRANCH   7  25
TORSDOF 8
ENDMDL
MODEL 7
REMARK VINA RESULT:      -6.5      1.175      5.337
REMARK  Name = 
REMARK  8 active torsions:
REMARK  status: ('A' for Active; 'I' for Inactive)
REMARK    1  A    between atoms: C_2  and  C_4
REMARK    2  A    between atoms: C_4  and  N_5
REMARK    3  A    between atoms: N_8  and  C_9
REMARK    4  A    between atoms: C_9  and  C_10
REMARK    5  A    between atoms: N_15  and  C_16
REMARK    6  A    between atoms: C_16  and  C_17
REMARK    7  A    between atoms: N_22  and  C_23
REMARK    8  A    between atoms: C_23  and  C_24
REMARK                            x       y       z     vdW  Elec       q    Type
REMARK                         _______ _______ _______ _____ _____    ______ ____
ROOT
ATOM      1  N   UNL     1       3.500   6.608  -4.441  0.00  0.00    -0.268 NA
ATOM      2  C   UNL     1       2.250   5.913  -4.679  0.00  0.00    +0.090 C 
ATOM      3  C   UNL     1       1.109   6.797  -4.245  0.00  0.00    +0.090 C 
ATOM      4  N   UNL     1       0.017   6.758  -5.192  0.00  0.00    -0.261 NA
ATOM      5  C   UNL     1       0.580   6.872  -6.537  0.00  0.00    +0.090 C 
ATOM      6  C   UNL     1       0.044   5.719  -7.334  0.00  0.00    +0.090 C 
ATOM      7  N   UNL     1       0.694   5.509  -8.589  0.00  0.00    -0.261 NA
ATOM      8  C   UNL     1       2.055   5.942  -8.652  0.00  0.00    +0.090 C 
ATOM      9  C   UNL     1       2.974   4.755  -8.390  0.00  0.00    +0.090 C 
ATOM     10  N   UNL     1       4.094   5.271  -7.657  0.00  0.00    -0.261 NA
ATOM     11  C   UNL     1       4.042   5.043  -6.242  0.00  0.00    +0.090 C 
ATOM     12  C   UNL     1       4.393   6.358  -5.569  0.00  0.00    +0.090 C 
ENDROOT
BRANCH   1  13
ATOM     13  C   UNL     1       4.200   6.089  -3.266  0.00  0.00    +0.105 C 
BRANCH  13  15
ATOM     14  C   UNL     1       4.816   7.015  -1.135  0.00  0.00    +0.037 C 
ATOM     15  C   UNL     1       5.027   7.457  -2.744  0.00  0.00    +0.168 C 
ATOM     16  O   UNL     1       3.719   8.284  -2.725  0.00  0.00    -0.222 OA
ENDBRANCH  13  15
ENDBRANCH   1  13
BRANCH   4  17
ATOM     17  C   UNL     1      -0.664   5.475  -5.022  0.00  0.00    +0.188 C 
BRANCH  17  18
ATOM     18  C   UNL     1      -1.705   5.667  -3.973  0.00  0.00    +0.381 C 
ATOM     19  O   UNL     1      -1.665   4.957  -2.771  0.00  0.00    -0.244 OA
ATOM     20  O   UNL     1      -2.785   6.236  -4.261  0.00  0.00    -0.244 OA
ENDBRANCH  17  18
ENDBRANCH   4  17
BRANCH  10  21
ATOM     21  C   UNL     1       5.367   5.018  -8.261  0.00  0.00    +0.188 C 
BRANCH  21  22
ATOM     22  C   UNL     1       5.496   5.732  -9.569  0.00  0.00    +0.381 C 
ATOM     23  O   UNL     1       4.898   5.177 -10.702  0.00  0.00    -0.244 OA
ATOM     24  O   UNL     1       6.484   6.489  -9.730  0.00  0.00    -0.244 OA
ENDBRANCH  21  22
ENDBRANCH  10  21
BRANCH   7  25
ATOM     25  C   UNL     1      -0.044   5.996  -9.728  0.00  0.00    +0.188 C 
BRANCH  25  26
ATOM     26  C   UNL     1       0.216   5.126 -10.910  0.00  0.00    +0.381 C 
ATOM     27  O   UNL     1       0.622   5.732 -12.085  0.00  0.00    -0.244 OA
ATOM     28  O   UNL     1       0.257   3.882 -10.817  0.00  0.00    -0.244 OA
ENDBRANCH  25  26
ENDBRANCH   7  25
TORSDOF 8
ENDMDL
MODEL 8
REMARK VINA RESULT:      -6.5      1.655      6.010
REMARK  Name = 
REMARK  8 active torsions:
REMARK  status: ('A' for Active; 'I' for Inactive)
REMARK    1  A    between atoms: C_2  and  C_4
REMARK    2  A    between atoms: C_4  and  N_5
REMARK    3  A    between atoms: N_8  and  C_9
REMARK    4  A    between atoms: C_9  and  C_10
REMARK    5  A    between atoms: N_15  and  C_16
REMARK    6  A    between atoms: C_16  and  C_17
REMARK    7  A    between atoms: N_22  and  C_23
REMARK    8  A    between atoms: C_23  and  C_24
REMARK                            x       y       z     vdW  Elec       q    Type
REMARK                         _______ _______ _______ _____ _____    ______ ____
ROOT
ATOM      1  N   UNL     1       3.982   6.071  -7.460  0.00  0.00    -0.268 NA
ATOM      2  C   UNL     1       3.717   5.405  -6.199  0.00  0.00    +0.090 C 
ATOM      3  C   UNL     1       4.401   6.164  -5.092  0.00  0.00    +0.090 C 
ATOM      4  N   UNL     1       3.555   6.279  -3.926  0.00  0.00    -0.261 NA
ATOM      5  C   UNL     1       2.216   6.659  -4.373  0.00  0.00    +0.090 C 
ATOM      6  C   UNL     1       1.260   5.665  -3.783  0.00  0.00    +0.090 C 
ATOM      7  N   UNL     1      -0.060   5.712  -4.327  0.00  0.00    -0.261 NA
ATOM      8  C   UNL     1      -0.149   6.180  -5.675  0.00  0.00    +0.090 C 
ATOM      9  C   UNL     1      -0.192   4.986  -6.621  0.00  0.00    +0.090 C 
ATOM     10  N   UNL     1       0.534   5.380  -7.794  0.00  0.00    -0.261 NA
ATOM     11  C   UNL     1       1.879   4.888  -7.862  0.00  0.00    +0.090 C 
ATOM     12  C   UNL     1       2.759   6.060  -8.258  0.00  0.00    +0.090 C 
ENDROOT
BRANCH   1  13
ATOM     13  C   UNL     1       4.977   5.356  -8.259  0.00  0.00    +0.105 C 
BRANCH  13  15
ATOM     14  C   UNL     1       4.802   5.149 -10.647  0.00  0.00    +0.037 C 
ATOM     15  C   UNL     1       5.153   6.393  -9.572  0.00  0.00    +0.168 C 
ATOM     16  O   UNL     1       6.668   6.085  -9.655  0.00  0.00    -0.222 OA
ENDBRANCH  13  15
ENDBRANCH   1  13
BRANCH   4  17
ATOM     17  C   UNL     1       3.532   4.972  -3.270  0.00  0.00    +0.188 C 
BRANCH  17  18
ATOM     18  C   UNL     1       4.072   5.161  -1.894  0.00  0.00    +0.381 C 
ATOM     19  O   UNL     1       3.920   4.179  -0.913  0.00  0.00    -0.244 OA
ATOM     20  O   UNL     1       4.405   6.306  -1.506  0.00  0.00    -0.244 OA
ENDBRANCH  17  18
ENDBRANCH   4  17
BRANCH  10  21
ATOM     21  C   UNL     1      -0.208   5.276  -9.015  0.00  0.00    +0.188 C 
BRANCH  21  22
ATOM     22  C   UNL     1       0.508   5.951 -10.142  0.00  0.00    +0.381 C 
ATOM     23  O   UNL     1       0.304   7.317 -10.349  0.00  0.00    -0.244 OA
ATOM     24  O   UNL     1       0.856   5.248 -11.121  0.00  0.00    -0.244 OA
ENDBRANCH  21  22
ENDBRANCH  10  21
BRANCH   7  25
ATOM     25  C   UNL     1      -1.024   6.387  -3.494  0.00  0.00    +0.188 C 
BRANCH  25  26
ATOM     26  C   UNL     1      -2.142   5.462  -3.159  0.00  0.00    +0.381 C 
ATOM     27  O   UNL     1      -2.229   4.991  -1.860  0.00  0.00    -0.244 OA
ATOM     28  O   UNL     1      -3.086   5.254  -3.949  0.00  0.00    -0.244 OA
ENDBRANCH  25  26
ENDBRANCH   7  25
TORSDOF 8
ENDMDL
MODEL 9
REMARK VINA RESULT:      -6.4      1.828      5.729
REMARK  Name = 
REMARK  8 active torsions:
REMARK  status: ('A' for Active; 'I' for Inactive)
REMARK    1  A    between atoms: C_2  and  C_4
REMARK    2  A    between atoms: C_4  and  N_5
REMARK    3  A    between atoms: N_8  and  C_9
REMARK    4  A    between atoms: C_9  and  C_10
REMARK    5  A    between atoms: N_15  and  C_16
REMARK    6  A    between atoms: C_16  and  C_17
REMARK    7  A    between atoms: N_22  and  C_23
REMARK    8  A    between atoms: C_23  and  C_24
REMARK                            x       y       z     vdW  Elec       q    Type
REMARK                         _______ _______ _______ _____ _____    ______ ____
ROOT
ATOM      1  N   UNL     1       3.043   5.474  -3.432  0.00  0.00    -0.268 NA
ATOM      2  C   UNL     1       3.252   5.983  -4.774  0.00  0.00    +0.090 C 
ATOM      3  C   UNL     1       4.193   5.062  -5.505  0.00  0.00    +0.090 C 
ATOM      4  N   UNL     1       3.761   4.832  -6.866  0.00  0.00    -0.261 NA
ATOM      5  C   UNL     1       2.323   4.566  -6.845  0.00  0.00    +0.090 C 
ATOM      6  C   UNL     1       1.690   5.514  -7.821  0.00  0.00    +0.090 C 
ATOM      7  N   UNL     1       0.265   5.590  -7.740  0.00  0.00    -0.261 NA
ATOM      8  C   UNL     1      -0.289   5.303  -6.454  0.00  0.00    +0.090 C 
ATOM      9  C   UNL     1      -0.539   6.608  -5.709  0.00  0.00    +0.090 C 
ATOM     10  N   UNL     1      -0.263   6.339  -4.327  0.00  0.00    -0.261 NA
ATOM     11  C   UNL     1       1.023   6.782  -3.874  0.00  0.00    +0.090 C 
ATOM     12  C   UNL     1       1.633   5.636  -3.087  0.00  0.00    +0.090 C 
ENDROOT
BRANCH   1  13
ATOM     13  C   UNL     1       3.782   6.245  -2.433  0.00  0.00    +0.105 C 
BRANCH  13  15
ATOM     14  C   UNL     1       4.243   6.525  -0.090  0.00  0.00    +0.037 C 
ATOM     15  C   UNL     1       3.185   5.591  -1.003  0.00  0.00    +0.168 C 
ATOM     16  O   UNL     1       4.207   4.431  -1.066  0.00  0.00    -0.222 OA
ENDBRANCH  13  15
ENDBRANCH   1  13
BRANCH   4  17
ATOM     17  C   UNL     1       4.054   6.044  -7.629  0.00  0.00    +0.188 C 
BRANCH  17  18
ATOM     18  C   UNL     1       4.924   5.644  -8.770  0.00  0.00    +0.381 C 
ATOM     19  O   UNL     1       4.389   5.364 -10.030  0.00  0.00    -0.244 OA
ATOM     20  O   UNL     1       6.101   5.267  -8.556  0.00  0.00    -0.244 OA
ENDBRANCH  17  18
ENDBRANCH   4  17
BRANCH  10  21
ATOM     21  C   UNL     1      -1.347   6.629  -3.437  0.00  0.00    +0.188 C 
BRANCH  21  22
ATOM     22  C   UNL     1      -2.101   5.387  -3.081  0.00  0.00    +0.381 C 
ATOM     23  O   UNL     1      -3.249   5.064  -3.808  0.00  0.00    -0.244 OA
ATOM     24  O   UNL     1      -2.001   4.954  -1.908  0.00  0.00    -0.244 OA
ENDBRANCH  21  22
ENDBRANCH  10  21
BRANCH   7  25
ATOM     25  C   UNL     1      -0.429   4.853  -8.765  0.00  0.00    +0.188 C 
BRANCH  25  26
ATOM     26  C   UNL     1       0.035   5.292 -10.110  0.00  0.00    +0.381 C 
ATOM     27  O   UNL     1      -0.026   6.642 -10.409  0.00  0.00    -0.244 OA
ATOM     28  O   UNL     1       0.637   4.521 -10.886  0.00  0.00    -0.244 OA
ENDBRANCH  25  26
ENDBRANCH   7  25
TORSDOF 8
ENDMDL
