MODEL 1
REMARK VINA RESULT:      -7.6      0.000      0.000
REMARK  Name = 
REMARK  4 active torsions:
REMARK  status: ('A' for Active; 'I' for Inactive)
REMARK    1  A    between atoms: C_2  and  O_4
REMARK    2  A    between atoms: O_4  and  C_5
REMARK    3  A    between atoms: C_5  and  C_6
REMARK    4  A    between atoms: C_6  and  C_8
REMARK                            x       y       z     vdW  Elec       q    Type
REMARK                         _______ _______ _______ _____ _____    ______ ____
ROOT
ATOM      1  C   UNL     1       5.497   5.608 -11.792  0.00  0.00    +0.174 C 
ATOM      2  C   UNL     1       4.330   5.472 -10.999  0.00  0.00    +0.034 C 
ATOM      3  C   UNL     1       4.743   6.388  -9.737  0.00  0.00    +0.008 C 
ATOM      4  C   UNL     1       3.097   6.469  -9.353  0.00  0.00    +0.036 C 
ATOM      5  C   UNL     1       3.298   5.413  -8.181  0.00  0.00    +0.168 C 
ATOM      6  C   UNL     1       4.051   4.123  -8.813  0.00  0.00    +0.182 C 
ATOM      7  O   UNL     1       2.822   3.235  -8.654  0.00  0.00    -0.220 OA
ATOM      8  F   UNL     1       4.317   5.849  -7.342  0.00  0.00    -0.237 F 
ATOM      9  C   UNL     1       2.142   5.227  -7.399  0.00  0.00    +0.066 C 
ATOM     10  C   UNL     1       1.842   6.622  -6.884  0.00  0.00    -0.003 C 
ATOM     11  C   UNL     1       0.717   6.742  -6.169  0.00  0.00    +0.036 C 
ATOM     12  C   UNL     1       0.418   5.616  -5.275  0.00  0.00    +0.195 C 
ATOM     13  C   UNL     1       1.479   4.639  -5.194  0.00  0.00    +0.038 C 
ATOM     14  O   UNL     1      -0.597   5.676  -4.566  0.00  0.00    -0.287 OA
ATOM     15  C   UNL     1       1.626   7.698  -8.085  0.00  0.00    +0.180 C 
ATOM     16  F   UNL     1       1.699   8.878  -7.147  0.00  0.00    -0.233 F 
ATOM     17  C   UNL     1       0.868   4.721  -7.956  0.00  0.00    +0.011 C 
ATOM     18  C   UNL     1       2.461   4.562  -6.088  0.00  0.00    -0.017 C 
ATOM     19  C   UNL     1       3.255   7.759  -8.383  0.00  0.00    +0.042 C 
ATOM     20  C   UNL     1       4.721   7.669 -10.714  0.00  0.00    +0.033 C 
ATOM     21  C   UNL     1       3.203   6.204 -11.745  0.00  0.00    +0.003 C 
ATOM     22  C   UNL     1       3.723   4.361 -10.410  0.00  0.00    +0.038 C 
ATOM     23  C   UNL     1       6.007   7.159 -11.618  0.00  0.00    +0.149 C 
ATOM     24  O   UNL     1       6.842   6.831 -10.396  0.00  0.00    -0.334 OA
ATOM     25  C   UNL     1       7.518   5.700 -10.838  0.00  0.00    +0.188 C 
ATOM     26  C   UNL     1       8.159   5.043  -9.666  0.00  0.00    +0.061 C 
ATOM     27  C   UNL     1       8.508   6.199 -11.883  0.00  0.00    +0.061 C 
ATOM     28  O   UNL     1       6.633   4.908 -11.534  0.00  0.00    -0.330 OA
ENDROOT
BRANCH   1  29
ATOM     29  C   UNL     1       5.169   5.625 -13.259  0.00  0.00    +0.221 C 
ATOM     30  O   UNL     1       4.768   4.542 -13.667  0.00  0.00    -0.290 OA
BRANCH  29  31
ATOM     31  C   UNL     1       5.733   6.552 -14.257  0.00  0.00    +0.275 C 
BRANCH  31  32
ATOM     32  O   UNL     1       4.878   6.836 -15.326  0.00  0.00    -0.440 OA
BRANCH  32  34
ATOM     33  C   UNL     1       6.419   8.312 -16.602  0.00  0.00    +0.121 C 
ATOM     34  C   UNL     1       5.319   7.358 -16.545  0.00  0.00    +0.318 C 
ATOM     35  O   UNL     1       4.638   6.972 -17.522  0.00  0.00    -0.250 OA
ENDBRANCH  32  34
ENDBRANCH  31  32
ENDBRANCH  29  31
ENDBRANCH   1  29
TORSDOF 4
ENDMDL
MODEL 2
REMARK VINA RESULT:      -7.5      3.654      9.206
REMARK  Name = 
REMARK  4 active torsions:
REMARK  status: ('A' for Active; 'I' for Inactive)
REMARK    1  A    between atoms: C_2  and  O_4
REMARK    2  A    between atoms: O_4  and  C_5
REMARK    3  A    between atoms: C_5  and  C_6
REMARK    4  A    between atoms: C_6  and  C_8
REMARK                            x       y       z     vdW  Elec       q    Type
REMARK                         _______ _______ _______ _____ _____    ______ ____
ROOT
ATOM      1  C   UNL     1       2.768   5.420  -2.741  0.00  0.00    +0.174 C 
ATOM      2  C   UNL     1       3.026   5.207  -4.118  0.00  0.00    +0.034 C 
ATOM      3  C   UNL     1       2.049   6.318  -4.760  0.00  0.00    +0.008 C 
ATOM      4  C   UNL     1       2.966   6.198  -6.176  0.00  0.00    +0.036 C 
ATOM      5  C   UNL     1       1.825   5.331  -6.867  0.00  0.00    +0.168 C 
ATOM      6  C   UNL     1       1.478   4.102  -5.867  0.00  0.00    +0.182 C 
ATOM      7  O   UNL     1       2.070   3.066  -6.816  0.00  0.00    -0.220 OA
ATOM      8  F   UNL     1       0.615   6.011  -6.775  0.00  0.00    -0.237 F 
ATOM      9  C   UNL     1       2.073   5.070  -8.227  0.00  0.00    +0.066 C 
ATOM     10  C   UNL     1       2.200   6.455  -8.830  0.00  0.00    -0.003 C 
ATOM     11  C   UNL     1       2.531   6.492 -10.127  0.00  0.00    +0.036 C 
ATOM     12  C   UNL     1       1.920   5.448 -10.960  0.00  0.00    +0.195 C 
ATOM     13  C   UNL     1       0.928   4.657 -10.268  0.00  0.00    +0.038 C 
ATOM     14  O   UNL     1       2.165   5.440 -12.175  0.00  0.00    -0.287 OA
ATOM     15  C   UNL     1       3.375   7.336  -8.131  0.00  0.00    +0.180 C 
ATOM     16  F   UNL     1       2.909   8.618  -8.778  0.00  0.00    -0.233 F 
ATOM     17  C   UNL     1       3.259   4.317  -8.697  0.00  0.00    +0.011 C 
ATOM     18  C   UNL     1       0.829   4.620  -8.942  0.00  0.00    -0.017 C 
ATOM     19  C   UNL     1       2.438   7.604  -6.790  0.00  0.00    +0.042 C 
ATOM     20  C   UNL     1       2.973   7.455  -4.091  0.00  0.00    +0.033 C 
ATOM     21  C   UNL     1       4.471   5.669  -4.371  0.00  0.00    +0.003 C 
ATOM     22  C   UNL     1       2.843   4.096  -4.944  0.00  0.00    +0.038 C 
ATOM     23  C   UNL     1       2.583   7.039  -2.540  0.00  0.00    +0.149 C 
ATOM     24  O   UNL     1       1.098   6.987  -2.840  0.00  0.00    -0.334 OA
ATOM     25  C   UNL     1       0.707   5.924  -2.034  0.00  0.00    +0.188 C 
ATOM     26  C   UNL     1      -0.670   5.514  -2.426  0.00  0.00    +0.061 C 
ATOM     27  C   UNL     1       0.813   6.437  -0.604  0.00  0.00    +0.061 C 
ATOM     28  O   UNL     1       1.656   4.932  -2.130  0.00  0.00    -0.330 OA
ENDROOT
BRANCH   1  29
ATOM     29  C   UNL     1       4.002   5.213  -1.908  0.00  0.00    +0.221 C 
ATOM     30  O   UNL     1       4.134   4.053  -1.538  0.00  0.00    -0.290 OA
BRANCH  29  31
ATOM     31  C   UNL     1       4.699   6.251  -1.128  0.00  0.00    +0.275 C 
BRANCH  31  32
ATOM     32  O   UNL     1       4.511   6.155   0.254  0.00  0.00    -0.440 OA
BRANCH  32  34
ATOM     33  C   UNL     1       4.012   8.578   0.506  0.00  0.00    +0.121 C 
ATOM     34  C   UNL     1       4.248   7.256   1.073  0.00  0.00    +0.318 C 
ATOM     35  O   UNL     1       4.305   6.987   2.295  0.00  0.00    -0.250 OA
ENDBRANCH  32  34
ENDBRANCH  31  32
ENDBRANCH  29  31
ENDBRANCH   1  29
TORSDOF 4
ENDMDL
MODEL 3
REMARK VINA RESULT:      -7.3      1.978      3.690
REMARK  Name = 
REMARK  4 active torsions:
REMARK  status: ('A' for Active; 'I' for Inactive)
REMARK    1  A    between atoms: C_2  and  O_4
REMARK    2  A    between atoms: O_4  and  C_5
REMARK    3  A    between atoms: C_5  and  C_6
REMARK    4  A    between atoms: C_6  and  C_8
REMARK                            x       y       z     vdW  Elec       q    Type
REMARK                         _______ _______ _______ _____ _____    ______ ____
ROOT
ATOM      1  C   UNL     1       4.472   6.637 -10.962  0.00  0.00    +0.174 C 
ATOM      2  C   UNL     1       4.018   6.695  -9.621  0.00  0.00    +0.034 C 
ATOM      3  C   UNL     1       2.990   5.454  -9.619  0.00  0.00    +0.008 C 
ATOM      4  C   UNL     1       3.103   5.458  -7.932  0.00  0.00    +0.036 C 
ATOM      5  C   UNL     1       1.680   6.159  -7.816  0.00  0.00    +0.168 C 
ATOM      6  C   UNL     1       1.710   7.477  -8.762  0.00  0.00    +0.182 C 
ATOM      7  O   UNL     1       1.656   8.424  -7.570  0.00  0.00    -0.220 OA
ATOM      8  F   UNL     1       0.746   5.419  -8.534  0.00  0.00    -0.237 F 
ATOM      9  C   UNL     1       1.221   6.267  -6.491  0.00  0.00    +0.066 C 
ATOM     10  C   UNL     1       1.205   4.830  -6.009  0.00  0.00    -0.003 C 
ATOM     11  C   UNL     1       0.882   4.656  -4.721  0.00  0.00    +0.036 C 
ATOM     12  C   UNL     1      -0.167   5.549  -4.212  0.00  0.00    +0.195 C 
ATOM     13  C   UNL     1      -0.795   6.354  -5.235  0.00  0.00    +0.038 C 
ATOM     14  O   UNL     1      -0.531   5.424  -3.033  0.00  0.00    -0.287 OA
ATOM     15  C   UNL     1       2.664   4.118  -6.116  0.00  0.00    +0.180 C 
ATOM     16  F   UNL     1       2.098   2.740  -5.876  0.00  0.00    -0.233 F 
ATOM     17  C   UNL     1       1.945   7.033  -5.450  0.00  0.00    +0.011 C 
ATOM     18  C   UNL     1      -0.256   6.545  -6.436  0.00  0.00    -0.017 C 
ATOM     19  C   UNL     1       2.514   3.957  -7.759  0.00  0.00    +0.042 C 
ATOM     20  C   UNL     1       4.245   4.469  -9.841  0.00  0.00    +0.033 C 
ATOM     21  C   UNL     1       5.212   6.300  -8.736  0.00  0.00    +0.003 C 
ATOM     22  C   UNL     1       3.338   7.684  -8.905  0.00  0.00    +0.038 C 
ATOM     23  C   UNL     1       4.592   5.046 -11.350  0.00  0.00    +0.149 C 
ATOM     24  O   UNL     1       3.148   4.965 -11.804  0.00  0.00    -0.334 OA
ATOM     25  C   UNL     1       3.067   6.091 -12.615  0.00  0.00    +0.188 C 
ATOM     26  C   UNL     1       1.632   6.360 -12.909  0.00  0.00    +0.061 C 
ATOM     27  C   UNL     1       3.898   5.765 -13.849  0.00  0.00    +0.061 C 
ATOM     28  O   UNL     1       3.735   7.123 -11.996  0.00  0.00    -0.330 OA
ENDROOT
BRANCH   1  29
ATOM     29  C   UNL     1       5.920   7.023 -11.074  0.00  0.00    +0.221 C 
ATOM     30  O   UNL     1       6.075   8.220 -11.280  0.00  0.00    -0.290 OA
BRANCH  29  31
ATOM     31  C   UNL     1       7.023   6.126 -11.461  0.00  0.00    +0.275 C 
BRANCH  31  32
ATOM     32  O   UNL     1       7.689   6.504 -12.630  0.00  0.00    -0.440 OA
BRANCH  32  34
ATOM     33  C   UNL     1       7.089   6.858 -15.017  0.00  0.00    +0.121 C 
ATOM     34  C   UNL     1       7.388   5.981 -13.891  0.00  0.00    +0.318 C 
ATOM     35  O   UNL     1       7.344   4.730 -13.910  0.00  0.00    -0.250 OA
ENDBRANCH  32  34
ENDBRANCH  31  32
ENDBRANCH  29  31
ENDBRANCH   1  29
TORSDOF 4
ENDMDL
MODEL 4
REMARK VINA RESULT:      -7.2      3.172     10.058
REMARK  Name = 
REMARK  4 active torsions:
REMARK  status: ('A' for Active; 'I' for Inactive)
REMARK    1  A    between atoms: C_2  and  O_4
REMARK    2  A    between atoms: O_4  and  C_5
REMARK    3  A    between atoms: C_5  and  C_6
REMARK    4  A    between atoms: C_6  and  C_8
REMARK                            x       y       z     vdW  Elec       q    Type
REMARK                         _______ _______ _______ _____ _____    ______ ____
ROOT
ATOM      1  C   UNL     1      -0.771   5.796  -3.307  0.00  0.00    +0.174 C 
ATOM      2  C   UNL     1       0.394   5.678  -4.106  0.00  0.00    +0.034 C 
ATOM      3  C   UNL     1      -0.137   6.347  -5.474  0.00  0.00    +0.008 C 
ATOM      4  C   UNL     1       1.483   6.557  -5.912  0.00  0.00    +0.036 C 
ATOM      5  C   UNL     1       1.393   5.325  -6.915  0.00  0.00    +0.168 C 
ATOM      6  C   UNL     1       0.802   4.064  -6.083  0.00  0.00    +0.182 C 
ATOM      7  O   UNL     1       2.123   3.308  -6.148  0.00  0.00    -0.220 OA
ATOM      8  F   UNL     1       0.320   5.516  -7.778  0.00  0.00    -0.237 F 
ATOM      9  C   UNL     1       2.553   5.159  -7.695  0.00  0.00    +0.066 C 
ATOM     10  C   UNL     1       2.683   6.488  -8.413  0.00  0.00    -0.003 C 
ATOM     11  C   UNL     1       3.778   6.630  -9.170  0.00  0.00    +0.036 C 
ATOM     12  C   UNL     1       4.195   5.426  -9.901  0.00  0.00    +0.195 C 
ATOM     13  C   UNL     1       3.254   4.334  -9.811  0.00  0.00    +0.038 C 
ATOM     14  O   UNL     1       5.188   5.496 -10.640  0.00  0.00    -0.287 OA
ATOM     15  C   UNL     1       2.787   7.745  -7.386  0.00  0.00    +0.180 C 
ATOM     16  F   UNL     1       2.567   8.760  -8.480  0.00  0.00    -0.233 F 
ATOM     17  C   UNL     1       3.884   4.887  -7.107  0.00  0.00    +0.011 C 
ATOM     18  C   UNL     1       2.298   4.278  -8.887  0.00  0.00    -0.017 C 
ATOM     19  C   UNL     1       1.166   7.665  -7.053  0.00  0.00    +0.042 C 
ATOM     20  C   UNL     1      -0.252   7.751  -4.692  0.00  0.00    +0.033 C 
ATOM     21  C   UNL     1       1.438   6.633  -3.505  0.00  0.00    +0.003 C 
ATOM     22  C   UNL     1       1.119   4.568  -4.546  0.00  0.00    +0.038 C 
ATOM     23  C   UNL     1      -1.460   7.236  -3.687  0.00  0.00    +0.149 C 
ATOM     24  O   UNL     1      -2.265   6.641  -4.826  0.00  0.00    -0.334 OA
ATOM     25  C   UNL     1      -2.800   5.518  -4.206  0.00  0.00    +0.188 C 
ATOM     26  C   UNL     1      -3.374   4.628  -5.253  0.00  0.00    +0.061 C 
ATOM     27  C   UNL     1      -3.828   6.049  -3.216  0.00  0.00    +0.061 C 
ATOM     28  O   UNL     1      -1.821   4.941  -3.430  0.00  0.00    -0.330 OA
ENDROOT
BRANCH   1  29
ATOM     29  C   UNL     1      -0.430   6.063  -1.868  0.00  0.00    +0.221 C 
ATOM     30  O   UNL     1      -0.189   5.039  -1.241  0.00  0.00    -0.290 OA
BRANCH  29  31
ATOM     31  C   UNL     1      -0.840   7.247  -1.092  0.00  0.00    +0.275 C 
BRANCH  31  32
ATOM     32  O   UNL     1      -1.546   6.951   0.078  0.00  0.00    -0.440 OA
BRANCH  32  34
ATOM     33  C   UNL     1      -2.810   7.583   2.124  0.00  0.00    +0.121 C 
ATOM     34  C   UNL     1      -1.932   7.919   1.009  0.00  0.00    +0.318 C 
ATOM     35  O   UNL     1      -1.504   9.064   0.738  0.00  0.00    -0.250 OA
ENDBRANCH  32  34
ENDBRANCH  31  32
ENDBRANCH  29  31
ENDBRANCH   1  29
TORSDOF 4
ENDMDL
MODEL 5
REMARK VINA RESULT:      -7.1      2.746      8.854
REMARK  Name = 
REMARK  4 active torsions:
REMARK  status: ('A' for Active; 'I' for Inactive)
REMARK    1  A    between atoms: C_2  and  O_4
REMARK    2  A    between atoms: O_4  and  C_5
REMARK    3  A    between atoms: C_5  and  C_6
REMARK    4  A    between atoms: C_6  and  C_8
REMARK                            x       y       z     vdW  Elec       q    Type
REMARK                         _______ _______ _______ _____ _____    ______ ____
ROOT
ATOM      1  C   UNL     1       1.001   6.543  -3.791  0.00  0.00    +0.174 C 
ATOM      2  C   UNL     1       1.046   6.515  -5.207  0.00  0.00    +0.034 C 
ATOM      3  C   UNL     1       2.389   5.649  -5.426  0.00  0.00    +0.008 C 
ATOM      4  C   UNL     1       1.847   5.346  -7.000  0.00  0.00    +0.036 C 
ATOM      5  C   UNL     1       2.879   6.408  -7.582  0.00  0.00    +0.168 C 
ATOM      6  C   UNL     1       2.663   7.793  -6.766  0.00  0.00    +0.182 C 
ATOM      7  O   UNL     1       2.091   8.508  -7.984  0.00  0.00    -0.220 OA
ATOM      8  F   UNL     1       4.156   6.103  -7.124  0.00  0.00    -0.237 F 
ATOM      9  C   UNL     1       2.917   6.431  -8.989  0.00  0.00    +0.066 C 
ATOM     10  C   UNL     1       3.280   5.004  -9.350  0.00  0.00    -0.003 C 
ATOM     11  C   UNL     1       3.298   4.728 -10.660  0.00  0.00    +0.036 C 
ATOM     12  C   UNL     1       3.825   5.795 -11.520  0.00  0.00    +0.195 C 
ATOM     13  C   UNL     1       4.394   6.904 -10.789  0.00  0.00    +0.038 C 
ATOM     14  O   UNL     1       3.891   5.594 -12.742  0.00  0.00    -0.287 OA
ATOM     15  C   UNL     1       2.218   3.921  -8.765  0.00  0.00    +0.180 C 
ATOM     16  F   UNL     1       3.123   2.751  -9.064  0.00  0.00    -0.233 F 
ATOM     17  C   UNL     1       1.739   6.769  -9.819  0.00  0.00    +0.011 C 
ATOM     18  C   UNL     1       4.153   7.119  -9.499  0.00  0.00    -0.017 C 
ATOM     19  C   UNL     1       2.832   4.079  -7.233  0.00  0.00    +0.042 C 
ATOM     20  C   UNL     1       1.631   4.387  -4.773  0.00  0.00    +0.033 C 
ATOM     21  C   UNL     1      -0.137   5.647  -5.667  0.00  0.00    +0.003 C 
ATOM     22  C   UNL     1       1.153   7.530  -6.160  0.00  0.00    +0.038 C 
ATOM     23  C   UNL     1       1.515   5.072  -3.273  0.00  0.00    +0.149 C 
ATOM     24  O   UNL     1       2.971   5.496  -3.265  0.00  0.00    -0.334 OA
ATOM     25  C   UNL     1       2.884   6.711  -2.596  0.00  0.00    +0.188 C 
ATOM     26  C   UNL     1       4.174   7.436  -2.761  0.00  0.00    +0.061 C 
ATOM     27  C   UNL     1       2.556   6.358  -1.151  0.00  0.00    +0.061 C 
ATOM     28  O   UNL     1       1.778   7.386  -3.060  0.00  0.00    -0.330 OA
ENDROOT
BRANCH   1  29
ATOM     29  C   UNL     1      -0.413   6.497  -3.281  0.00  0.00    +0.221 C 
ATOM     30  O   UNL     1      -1.018   7.544  -3.472  0.00  0.00    -0.290 OA
BRANCH  29  31
ATOM     31  C   UNL     1      -0.914   5.616  -2.212  0.00  0.00    +0.275 C 
BRANCH  31  32
ATOM     32  O   UNL     1      -2.041   4.868  -2.564  0.00  0.00    -0.440 OA
BRANCH  32  34
ATOM     33  C   UNL     1      -3.999   6.400  -2.567  0.00  0.00    +0.121 C 
ATOM     34  C   UNL     1      -3.150   5.410  -3.219  0.00  0.00    +0.318 C 
ATOM     35  O   UNL     1      -3.348   4.912  -4.350  0.00  0.00    -0.250 OA
ENDBRANCH  32  34
ENDBRANCH  31  32
ENDBRANCH  29  31
ENDBRANCH   1  29
TORSDOF 4
ENDMDL
MODEL 6
REMARK VINA RESULT:      -7.1      2.760      9.289
REMARK  Name = 
REMARK  4 active torsions:
REMARK  status: ('A' for Active; 'I' for Inactive)
REMARK    1  A    between atoms: C_2  and  O_4
REMARK    2  A    between atoms: O_4  and  C_5
REMARK    3  A    between atoms: C_5  and  C_6
REMARK    4  A    between atoms: C_6  and  C_8
REMARK                            x       y       z     vdW  Elec       q    Type
REMARK                         _______ _______ _______ _____ _____    ______ ____
ROOT
ATOM      1  C   UNL     1       0.421   6.580  -3.966  0.00  0.00    +0.174 C 
ATOM      2  C   UNL     1       0.624   6.570  -5.369  0.00  0.00    +0.034 C 
ATOM      3  C   UNL     1       1.917   5.612  -5.457  0.00  0.00    +0.008 C 
ATOM      4  C   UNL     1       1.536   5.372  -7.087  0.00  0.00    +0.036 C 
ATOM      5  C   UNL     1       2.700   6.363  -7.527  0.00  0.00    +0.168 C 
ATOM      6  C   UNL     1       2.492   7.749  -6.708  0.00  0.00    +0.182 C 
ATOM      7  O   UNL     1       2.113   8.521  -7.966  0.00  0.00    -0.220 OA
ATOM      8  F   UNL     1       3.892   5.959  -6.937  0.00  0.00    -0.237 F 
ATOM      9  C   UNL     1       2.897   6.404  -8.920  0.00  0.00    +0.066 C 
ATOM     10  C   UNL     1       3.196   4.960  -9.271  0.00  0.00    -0.003 C 
ATOM     11  C   UNL     1       3.340   4.702 -10.577  0.00  0.00    +0.036 C 
ATOM     12  C   UNL     1       4.036   5.740 -11.348  0.00  0.00    +0.195 C 
ATOM     13  C   UNL     1       4.597   6.793 -10.534  0.00  0.00    +0.038 C 
ATOM     14  O   UNL     1       4.224   5.553 -12.560  0.00  0.00    -0.287 OA
ATOM     15  C   UNL     1       2.000   3.949  -8.832  0.00  0.00    +0.180 C 
ATOM     16  F   UNL     1       2.847   2.721  -9.056  0.00  0.00    -0.233 F 
ATOM     17  C   UNL     1       1.846   6.840  -9.868  0.00  0.00    +0.011 C 
ATOM     18  C   UNL     1       4.228   7.007  -9.274  0.00  0.00    -0.017 C 
ATOM     19  C   UNL     1       2.448   4.039  -7.239  0.00  0.00    +0.042 C 
ATOM     20  C   UNL     1       1.002   4.399  -4.921  0.00  0.00    +0.033 C 
ATOM     21  C   UNL     1      -0.559   5.798  -5.977  0.00  0.00    +0.003 C 
ATOM     22  C   UNL     1       0.909   7.588  -6.281  0.00  0.00    +0.038 C 
ATOM     23  C   UNL     1       0.768   5.068  -3.428  0.00  0.00    +0.149 C 
ATOM     24  O   UNL     1       2.240   5.384  -3.248  0.00  0.00    -0.334 OA
ATOM     25  C   UNL     1       2.166   6.592  -2.565  0.00  0.00    +0.188 C 
ATOM     26  C   UNL     1       3.514   7.223  -2.570  0.00  0.00    +0.061 C 
ATOM     27  C   UNL     1       1.653   6.244  -1.174  0.00  0.00    +0.061 C 
ATOM     28  O   UNL     1       1.169   7.353  -3.134  0.00  0.00    -0.330 OA
ENDROOT
BRANCH   1  29
ATOM     29  C   UNL     1      -1.040   6.631  -3.618  0.00  0.00    +0.221 C 
ATOM     30  O   UNL     1      -1.568   7.685  -3.948  0.00  0.00    -0.290 OA
BRANCH  29  31
ATOM     31  C   UNL     1      -1.699   5.853  -2.553  0.00  0.00    +0.275 C 
BRANCH  31  32
ATOM     32  O   UNL     1      -2.431   6.624  -1.647  0.00  0.00    -0.440 OA
BRANCH  32  34
ATOM     33  C   UNL     1      -1.795   6.478   0.752  0.00  0.00    +0.121 C 
ATOM     34  C   UNL     1      -1.873   7.209  -0.506  0.00  0.00    +0.318 C 
ATOM     35  O   UNL     1      -1.530   8.400  -0.680  0.00  0.00    -0.250 OA
ENDBRANCH  32  34
ENDBRANCH  31  32
ENDBRANCH  29  31
ENDBRANCH   1  29
TORSDOF 4
ENDMDL
MODEL 7
REMARK VINA RESULT:      -6.6      3.216      8.495
REMARK  Name = 
REMARK  4 active torsions:
REMARK  status: ('A' for Active; 'I' for Inactive)
REMARK    1  A    between atoms: C_2  and  O_4
REMARK    2  A    between atoms: O_4  and  C_5
REMARK    3  A    between atoms: C_5  and  C_6
REMARK    4  A    between atoms: C_6  and  C_8
REMARK                            x       y       z     vdW  Elec       q    Type
REMARK                         _______ _______ _______ _____ _____    ______ ____
ROOT
ATOM      1  C   UNL     1       1.611   6.110  -4.927  0.00  0.00    +0.174 C 
ATOM      2  C   UNL     1       1.258   6.337  -6.281  0.00  0.00    +0.034 C 
ATOM      3  C   UNL     1       2.005   5.089  -6.976  0.00  0.00    +0.008 C 
ATOM      4  C   UNL     1       0.985   5.316  -8.307  0.00  0.00    +0.036 C 
ATOM      5  C   UNL     1       2.167   6.002  -9.122  0.00  0.00    +0.168 C 
ATOM      6  C   UNL     1       2.775   7.185  -8.193  0.00  0.00    +0.182 C 
ATOM      7  O   UNL     1       2.248   8.279  -9.113  0.00  0.00    -0.220 OA
ATOM      8  F   UNL     1       3.273   5.159  -9.121  0.00  0.00    -0.237 F 
ATOM      9  C   UNL     1       1.831   6.275 -10.461  0.00  0.00    +0.066 C 
ATOM     10  C   UNL     1       1.456   4.913 -11.011  0.00  0.00    -0.003 C 
ATOM     11  C   UNL     1       1.004   4.904 -12.271  0.00  0.00    +0.036 C 
ATOM     12  C   UNL     1       1.674   5.837 -13.185  0.00  0.00    +0.195 C 
ATOM     13  C   UNL     1       2.827   6.491 -12.608  0.00  0.00    +0.038 C 
ATOM     14  O   UNL     1       1.319   5.862 -14.372  0.00  0.00    -0.287 OA
ATOM     15  C   UNL     1       0.240   4.218 -10.183  0.00  0.00    +0.180 C 
ATOM     16  F   UNL     1       0.460   2.874 -10.833  0.00  0.00    -0.233 F 
ATOM     17  C   UNL     1       0.725   7.182 -10.843  0.00  0.00    +0.011 C 
ATOM     18  C   UNL     1       3.054   6.533 -11.298  0.00  0.00    -0.017 C 
ATOM     19  C   UNL     1       1.251   3.841  -8.926  0.00  0.00    +0.042 C 
ATOM     20  C   UNL     1       0.997   4.105  -6.195  0.00  0.00    +0.033 C 
ATOM     21  C   UNL     1      -0.255   6.081  -6.388  0.00  0.00    +0.003 C 
ATOM     22  C   UNL     1       1.516   7.398  -7.150  0.00  0.00    +0.038 C 
ATOM     23  C   UNL     1       1.586   4.485  -4.698  0.00  0.00    +0.149 C 
ATOM     24  O   UNL     1       3.029   4.321  -5.133  0.00  0.00    -0.334 OA
ATOM     25  C   UNL     1       3.639   5.329  -4.395  0.00  0.00    +0.188 C 
ATOM     26  C   UNL     1       5.016   5.534  -4.922  0.00  0.00    +0.061 C 
ATOM     27  C   UNL     1       3.596   4.859  -2.947  0.00  0.00    +0.061 C 
ATOM     28  O   UNL     1       2.833   6.445  -4.433  0.00  0.00    -0.330 OA
ENDROOT
BRANCH   1  29
ATOM     29  C   UNL     1       0.501   6.503  -3.992  0.00  0.00    +0.221 C 
ATOM     30  O   UNL     1       0.054   7.618  -4.231  0.00  0.00    -0.290 OA
BRANCH  29  31
ATOM     31  C   UNL     1       0.291   5.972  -2.633  0.00  0.00    +0.275 C 
BRANCH  31  32
ATOM     32  O   UNL     1      -0.788   5.091  -2.521  0.00  0.00    -0.440 OA
BRANCH  32  34
ATOM     33  C   UNL     1      -2.435   6.788  -1.754  0.00  0.00    +0.121 C 
ATOM     34  C   UNL     1      -2.113   5.512  -2.381  0.00  0.00    +0.318 C 
ATOM     35  O   UNL     1      -2.945   4.666  -2.781  0.00  0.00    -0.250 OA
ENDBRANCH  32  34
ENDBRANCH  31  32
ENDBRANCH  29  31
ENDBRANCH   1  29
TORSDOF 4
ENDMDL
MODEL 8
REMARK VINA RESULT:      -6.4      2.354      4.775
REMARK  Name = 
REMARK  4 active torsions:
REMARK  status: ('A' for Active; 'I' for Inactive)
REMARK    1  A    between atoms: C_2  and  O_4
REMARK    2  A    between atoms: O_4  and  C_5
REMARK    3  A    between atoms: C_5  and  C_6
REMARK    4  A    between atoms: C_6  and  C_8
REMARK                            x       y       z     vdW  Elec       q    Type
REMARK                         _______ _______ _______ _____ _____    ______ ____
ROOT
ATOM      1  C   UNL     1       3.032   6.165  -9.908  0.00  0.00    +0.174 C 
ATOM      2  C   UNL     1       3.210   6.444  -8.530  0.00  0.00    +0.034 C 
ATOM      3  C   UNL     1       2.594   5.099  -7.890  0.00  0.00    +0.008 C 
ATOM      4  C   UNL     1       3.429   5.480  -6.470  0.00  0.00    +0.036 C 
ATOM      5  C   UNL     1       2.082   5.979  -5.787  0.00  0.00    +0.168 C 
ATOM      6  C   UNL     1       1.398   7.054  -6.791  0.00  0.00    +0.182 C 
ATOM      7  O   UNL     1       1.659   8.218  -5.841  0.00  0.00    -0.220 OA
ATOM      8  F   UNL     1       1.122   4.978  -5.883  0.00  0.00    -0.237 F 
ATOM      9  C   UNL     1       2.237   6.302  -4.426  0.00  0.00    +0.066 C 
ATOM     10  C   UNL     1       2.758   5.014  -3.819  0.00  0.00    -0.003 C 
ATOM     11  C   UNL     1       3.078   5.076  -2.521  0.00  0.00    +0.036 C 
ATOM     12  C   UNL     1       2.186   5.898  -1.693  0.00  0.00    +0.195 C 
ATOM     13  C   UNL     1       1.011   6.367  -2.391  0.00  0.00    +0.038 C 
ATOM     14  O   UNL     1       2.412   5.978  -0.476  0.00  0.00    -0.287 OA
ATOM     15  C   UNL     1       4.141   4.511  -4.511  0.00  0.00    +0.180 C 
ATOM     16  F   UNL     1       4.064   3.150  -3.863  0.00  0.00    -0.233 F 
ATOM     17  C   UNL     1       3.150   7.368  -3.952  0.00  0.00    +0.011 C 
ATOM     18  C   UNL     1       0.913   6.372  -3.718  0.00  0.00    -0.017 C 
ATOM     19  C   UNL     1       3.329   3.982  -5.855  0.00  0.00    +0.042 C 
ATOM     20  C   UNL     1       3.812   4.278  -8.552  0.00  0.00    +0.033 C 
ATOM     21  C   UNL     1       4.725   6.422  -8.269  0.00  0.00    +0.003 C 
ATOM     22  C   UNL     1       2.708   7.456  -7.707  0.00  0.00    +0.038 C 
ATOM     23  C   UNL     1       3.325   4.562 -10.106  0.00  0.00    +0.149 C 
ATOM     24  O   UNL     1       1.888   4.181  -9.813  0.00  0.00    -0.334 OA
ATOM     25  C   UNL     1       1.209   5.083 -10.623  0.00  0.00    +0.188 C 
ATOM     26  C   UNL     1      -0.229   5.077 -10.238  0.00  0.00    +0.061 C 
ATOM     27  C   UNL     1       1.467   4.623 -12.052  0.00  0.00    +0.061 C 
ATOM     28  O   UNL     1       1.829   6.309 -10.525  0.00  0.00    -0.330 OA
ENDROOT
BRANCH   1  29
ATOM     29  C   UNL     1       4.157   6.721 -10.735  0.00  0.00    +0.221 C 
ATOM     30  O   UNL     1       4.258   7.937 -10.639  0.00  0.00    -0.290 OA
BRANCH  29  31
ATOM     31  C   UNL     1       4.737   6.090 -11.934  0.00  0.00    +0.275 C 
BRANCH  31  32
ATOM     32  O   UNL     1       6.096   6.353 -12.122  0.00  0.00    -0.440 OA
BRANCH  32  34
ATOM     33  C   UNL     1       7.710   5.617 -10.379  0.00  0.00    +0.121 C 
ATOM     34  C   UNL     1       7.112   5.490 -11.703  0.00  0.00    +0.318 C 
ATOM     35  O   UNL     1       7.469   4.680 -12.589  0.00  0.00    -0.250 OA
ENDBRANCH  32  34
ENDBRANCH  31  32
ENDBRANCH  29  31
ENDBRANCH   1  29
TORSDOF 4
ENDMDL
MODEL 9
REMARK VINA RESULT:      -6.4      4.305      8.964
REMARK  Name = 
REMARK  4 active torsions:
REMARK  status: ('A' for Active; 'I' for Inactive)
REMARK    1  A    between atoms: C_2  and  O_4
REMARK    2  A    between atoms: O_4  and  C_5
REMARK    3  A    between atoms: C_5  and  C_6
REMARK    4  A    between atoms: C_6  and  C_8
REMARK                            x       y       z     vdW  Elec       q    Type
REMARK                         _______ _______ _______ _____ _____    ______ ____
ROOT
ATOM      1  C   UNL     1       2.458   6.008  -2.497  0.00  0.00    +0.174 C 
ATOM      2  C   UNL     1       1.814   5.750  -3.733  0.00  0.00    +0.034 C 
ATOM      3  C   UNL     1       3.082   5.810  -4.726  0.00  0.00    +0.008 C 
ATOM      4  C   UNL     1       2.147   4.962  -5.852  0.00  0.00    +0.036 C 
ATOM      5  C   UNL     1       1.901   6.295  -6.684  0.00  0.00    +0.168 C 
ATOM      6  C   UNL     1       1.342   7.415  -5.652  0.00  0.00    +0.182 C 
ATOM      7  O   UNL     1      -0.041   7.420  -6.291  0.00  0.00    -0.220 OA
ATOM      8  F   UNL     1       3.127   6.885  -6.974  0.00  0.00    -0.237 F 
ATOM      9  C   UNL     1       1.228   6.074  -7.899  0.00  0.00    +0.066 C 
ATOM     10  C   UNL     1       2.128   5.092  -8.623  0.00  0.00    -0.003 C 
ATOM     11  C   UNL     1       1.664   4.640  -9.795  0.00  0.00    +0.036 C 
ATOM     12  C   UNL     1       0.955   5.632 -10.613  0.00  0.00    +0.195 C 
ATOM     13  C   UNL     1       1.023   6.977 -10.088  0.00  0.00    +0.038 C 
ATOM     14  O   UNL     1       0.522   5.285 -11.722  0.00  0.00    -0.287 OA
ATOM     15  C   UNL     1       2.368   3.724  -7.776  0.00  0.00    +0.180 C 
ATOM     16  F   UNL     1       3.496   3.273  -8.672  0.00  0.00    -0.233 F 
ATOM     17  C   UNL     1      -0.135   5.499  -7.970  0.00  0.00    +0.011 C 
ATOM     18  C   UNL     1       1.368   7.246  -8.832  0.00  0.00    -0.017 C 
ATOM     19  C   UNL     1       3.415   4.492  -6.747  0.00  0.00    +0.042 C 
ATOM     20  C   UNL     1       3.658   4.491  -4.002  0.00  0.00    +0.033 C 
ATOM     21  C   UNL     1       1.341   4.288  -3.684  0.00  0.00    +0.003 C 
ATOM     22  C   UNL     1       0.820   6.437  -4.432  0.00  0.00    +0.038 C 
ATOM     23  C   UNL     1       3.909   5.243  -2.552  0.00  0.00    +0.149 C 
ATOM     24  O   UNL     1       4.601   6.430  -3.194  0.00  0.00    -0.334 OA
ATOM     25  C   UNL     1       4.153   7.464  -2.380  0.00  0.00    +0.188 C 
ATOM     26  C   UNL     1       4.475   8.759  -3.039  0.00  0.00    +0.061 C 
ATOM     27  C   UNL     1       4.853   7.262  -1.042  0.00  0.00    +0.061 C 
ATOM     28  O   UNL     1       2.816   7.264  -2.118  0.00  0.00    -0.330 OA
ENDROOT
BRANCH   1  29
ATOM     29  C   UNL     1       1.823   5.242  -1.371  0.00  0.00    +0.221 C 
ATOM     30  O   UNL     1       2.624   4.542  -0.765  0.00  0.00    -0.290 OA
BRANCH  29  31
ATOM     31  C   UNL     1       0.399   4.871  -1.277  0.00  0.00    +0.275 C 
BRANCH  31  32
ATOM     32  O   UNL     1      -0.467   5.954  -1.110  0.00  0.00    -0.440 OA
BRANCH  32  34
ATOM     33  C   UNL     1      -2.157   7.350  -2.285  0.00  0.00    +0.121 C 
ATOM     34  C   UNL     1      -1.695   6.067  -1.770  0.00  0.00    +0.318 C 
ATOM     35  O   UNL     1      -2.340   4.995  -1.799  0.00  0.00    -0.250 OA
ENDBRANCH  32  34
ENDBRANCH  31  32
ENDBRANCH  29  31
ENDBRANCH   1  29
TORSDOF 4
ENDMDL
