MODEL 1
REMARK VINA RESULT:      -7.4      0.000      0.000
REMARK  Name = 
REMARK  4 active torsions:
REMARK  status: ('A' for Active; 'I' for Inactive)
REMARK    1  A    between atoms: N_2  and  C_3
REMARK    2  A    between atoms: C_3  and  C_4
REMARK    3  A    between atoms: C_4  and  C_5
REMARK    4  A    between atoms: C_5  and  N_6
REMARK                            x       y       z     vdW  Elec       q    Type
REMARK                         _______ _______ _______ _____ _____    ______ ____
ROOT
ATOM      1  N   UNL     1       1.440   5.793  -4.226  0.00  0.00    -0.287 N 
ATOM      2  C   UNL     1       2.805   6.184  -4.033  0.00  0.00    +0.048 A 
ATOM      3  C   UNL     1       3.809   6.035  -4.982  0.00  0.00    -0.008 A 
ATOM      4  C   UNL     1       5.016   6.657  -4.758  0.00  0.00    -0.003 A 
ATOM      5  C   UNL     1       5.135   7.656  -3.802  0.00  0.00    -0.000 A 
ATOM      6  C   UNL     1       4.061   7.980  -2.986  0.00  0.00    +0.001 A 
ATOM      7  C   UNL     1       3.689   5.410  -6.334  0.00  0.00    +0.032 C 
ATOM      8  C   UNL     1       2.629   6.088  -7.173  0.00  0.00    +0.032 C 
ATOM      9  C   UNL     1       1.248   5.677  -6.774  0.00  0.00    -0.008 A 
ATOM     10  C   UNL     1       0.430   5.410  -7.861  0.00  0.00    -0.003 A 
ATOM     11  C   UNL     1      -0.938   5.399  -7.647  0.00  0.00    -0.000 A 
ATOM     12  C   UNL     1      -1.437   5.653  -6.385  0.00  0.00    +0.001 A 
ATOM     13  C   UNL     1      -0.591   5.523  -5.313  0.00  0.00    +0.015 A 
ATOM     14  C   UNL     1       2.982   7.108  -3.022  0.00  0.00    +0.015 A 
ATOM     15  C   UNL     1       0.789   5.513  -5.472  0.00  0.00    +0.048 A 
ENDROOT
BRANCH   1  16
ATOM     16  C   UNL     1       0.560   6.233  -3.152  0.00  0.00    +0.097 C 
BRANCH  16  17
ATOM     17  C   UNL     1       0.256   5.125  -2.176  0.00  0.00    +0.041 C 
BRANCH  17  18
ATOM     18  C   UNL     1      -0.994   5.544  -1.414  0.00  0.00    +0.091 C 
BRANCH  18  20
ATOM     19  C   UNL     1      -3.095   5.986  -2.477  0.00  0.00    +0.107 C 
ATOM     20  N   UNL     1      -2.154   4.968  -2.050  0.00  0.00    -0.216 NA
ENDBRANCH  18  20
ENDBRANCH  17  18
ENDBRANCH  16  17
ENDBRANCH   1  16
TORSDOF 4
ENDMDL
MODEL 2
REMARK VINA RESULT:      -7.3      1.467      4.673
REMARK  Name = 
REMARK  4 active torsions:
REMARK  status: ('A' for Active; 'I' for Inactive)
REMARK    1  A    between atoms: N_2  and  C_3
REMARK    2  A    between atoms: C_3  and  C_4
REMARK    3  A    between atoms: C_4  and  C_5
REMARK    4  A    between atoms: C_5  and  N_6
REMARK                            x       y       z     vdW  Elec       q    Type
REMARK                         _______ _______ _______ _____ _____    ______ ____
ROOT
ATOM      1  N   UNL     1       0.650   5.863  -4.748  0.00  0.00    -0.287 N 
ATOM      2  C   UNL     1       0.985   5.974  -6.137  0.00  0.00    +0.048 A 
ATOM      3  C   UNL     1       0.155   5.584  -7.181  0.00  0.00    -0.008 A 
ATOM      4  C   UNL     1       0.499   5.956  -8.461  0.00  0.00    -0.003 A 
ATOM      5  C   UNL     1       1.443   6.947  -8.684  0.00  0.00    -0.000 A 
ATOM      6  C   UNL     1       2.130   7.518  -7.623  0.00  0.00    +0.001 A 
ATOM      7  C   UNL     1      -1.190   4.942  -7.075  0.00  0.00    +0.032 C 
ATOM      8  C   UNL     1      -2.153   5.787  -6.272  0.00  0.00    +0.032 C 
ATOM      9  C   UNL     1      -1.901   5.684  -4.802  0.00  0.00    -0.008 A 
ATOM     10  C   UNL     1      -3.066   5.545  -4.064  0.00  0.00    -0.003 A 
ATOM     11  C   UNL     1      -3.005   5.823  -2.709  0.00  0.00    -0.000 A 
ATOM     12  C   UNL     1      -1.810   6.225  -2.145  0.00  0.00    +0.001 A 
ATOM     13  C   UNL     1      -0.649   5.969  -2.830  0.00  0.00    +0.015 A 
ATOM     14  C   UNL     1       1.991   6.884  -6.396  0.00  0.00    +0.015 A 
ATOM     15  C   UNL     1      -0.655   5.671  -4.186  0.00  0.00    +0.048 A 
ENDROOT
BRANCH   1  16
ATOM     16  C   UNL     1       1.612   6.518  -3.872  0.00  0.00    +0.097 C 
BRANCH  16  17
ATOM     17  C   UNL     1       2.711   5.583  -3.436  0.00  0.00    +0.041 C 
BRANCH  17  18
ATOM     18  C   UNL     1       3.742   6.432  -2.705  0.00  0.00    +0.091 C 
BRANCH  18  20
ATOM     19  C   UNL     1       5.097   7.786  -4.143  0.00  0.00    +0.107 C 
ATOM     20  N   UNL     1       3.871   7.705  -3.373  0.00  0.00    -0.216 NA
ENDBRANCH  18  20
ENDBRANCH  17  18
ENDBRANCH  16  17
ENDBRANCH   1  16
TORSDOF 4
ENDMDL
MODEL 3
REMARK VINA RESULT:      -7.2      5.021      7.854
REMARK  Name = 
REMARK  4 active torsions:
REMARK  status: ('A' for Active; 'I' for Inactive)
REMARK    1  A    between atoms: N_2  and  C_3
REMARK    2  A    between atoms: C_3  and  C_4
REMARK    3  A    between atoms: C_4  and  C_5
REMARK    4  A    between atoms: C_5  and  N_6
REMARK                            x       y       z     vdW  Elec       q    Type
REMARK                         _______ _______ _______ _____ _____    ______ ____
ROOT
ATOM      1  N   UNL     1       4.248   5.783 -10.942  0.00  0.00    -0.287 N 
ATOM      2  C   UNL     1       3.815   5.886  -9.580  0.00  0.00    +0.048 A 
ATOM      3  C   UNL     1       4.580   5.516  -8.480  0.00  0.00    -0.008 A 
ATOM      4  C   UNL     1       4.139   5.879  -7.228  0.00  0.00    -0.003 A 
ATOM      5  C   UNL     1       3.159   6.848  -7.071  0.00  0.00    -0.000 A 
ATOM      6  C   UNL     1       2.534   7.402  -8.179  0.00  0.00    +0.001 A 
ATOM      7  C   UNL     1       5.943   4.906  -8.491  0.00  0.00    +0.032 C 
ATOM      8  C   UNL     1       6.940   5.773  -9.227  0.00  0.00    +0.032 C 
ATOM      9  C   UNL     1       6.793   5.665 -10.711  0.00  0.00    -0.008 A 
ATOM     10  C   UNL     1       8.009   5.553 -11.366  0.00  0.00    -0.003 A 
ATOM     11  C   UNL     1       8.035   5.830 -12.723  0.00  0.00    -0.000 A 
ATOM     12  C   UNL     1       6.873   6.203 -13.369  0.00  0.00    +0.001 A 
ATOM     13  C   UNL     1       5.674   5.920 -12.765  0.00  0.00    +0.015 A 
ATOM     14  C   UNL     1       2.772   6.771  -9.392  0.00  0.00    +0.015 A 
ATOM     15  C   UNL     1       5.593   5.622 -11.411  0.00  0.00    +0.048 A 
ENDROOT
BRANCH   1  16
ATOM     16  C   UNL     1       3.334   6.415 -11.884  0.00  0.00    +0.097 C 
BRANCH  16  17
ATOM     17  C   UNL     1       2.339   5.436 -12.453  0.00  0.00    +0.041 C 
BRANCH  17  18
ATOM     18  C   UNL     1       1.085   6.233 -12.787  0.00  0.00    +0.091 C 
BRANCH  18  20
ATOM     19  C   UNL     1       0.015   4.757 -11.234  0.00  0.00    +0.107 C 
ATOM     20  N   UNL     1       0.148   6.126 -11.695  0.00  0.00    -0.216 NA
ENDBRANCH  18  20
ENDBRANCH  17  18
ENDBRANCH  16  17
ENDBRANCH   1  16
TORSDOF 4
ENDMDL
MODEL 4
REMARK VINA RESULT:      -7.1      1.577      2.234
REMARK  Name = 
REMARK  4 active torsions:
REMARK  status: ('A' for Active; 'I' for Inactive)
REMARK    1  A    between atoms: N_2  and  C_3
REMARK    2  A    between atoms: C_3  and  C_4
REMARK    3  A    between atoms: C_4  and  C_5
REMARK    4  A    between atoms: C_5  and  N_6
REMARK                            x       y       z     vdW  Elec       q    Type
REMARK                         _______ _______ _______ _____ _____    ______ ____
ROOT
ATOM      1  N   UNL     1       0.974   5.539  -4.000  0.00  0.00    -0.287 N 
ATOM      2  C   UNL     1       2.373   5.612  -4.302  0.00  0.00    +0.048 A 
ATOM      3  C   UNL     1       2.943   5.189  -5.497  0.00  0.00    -0.008 A 
ATOM      4  C   UNL     1       4.254   5.525  -5.748  0.00  0.00    -0.003 A 
ATOM      5  C   UNL     1       4.890   6.512  -5.010  0.00  0.00    -0.000 A 
ATOM      6  C   UNL     1       4.246   7.115  -3.939  0.00  0.00    +0.001 A 
ATOM      7  C   UNL     1       2.248   4.547  -6.653  0.00  0.00    +0.032 C 
ATOM      8  C   UNL     1       1.127   5.412  -7.185  0.00  0.00    +0.032 C 
ATOM      9  C   UNL     1      -0.090   5.352  -6.318  0.00  0.00    -0.008 A 
ATOM     10  C   UNL     1      -1.264   5.231  -7.045  0.00  0.00    -0.003 A 
ATOM     11  C   UNL     1      -2.450   5.548  -6.406  0.00  0.00    -0.000 A 
ATOM     12  C   UNL     1      -2.429   5.970  -5.091  0.00  0.00    +0.001 A 
ATOM     13  C   UNL     1      -1.315   5.698  -4.339  0.00  0.00    +0.015 A 
ATOM     14  C   UNL     1       3.066   6.516  -3.522  0.00  0.00    +0.015 A 
ATOM     15  C   UNL     1      -0.103   5.361  -4.928  0.00  0.00    +0.048 A 
ENDROOT
BRANCH   1  16
ATOM     16  C   UNL     1       0.619   6.222  -2.763  0.00  0.00    +0.097 C 
BRANCH  16  17
ATOM     17  C   UNL     1       0.603   5.286  -1.581  0.00  0.00    +0.041 C 
BRANCH  17  18
ATOM     18  C   UNL     1       0.669   6.156  -0.333  0.00  0.00    +0.091 C 
BRANCH  18  20
ATOM     19  C   UNL     1       2.285   7.828   0.240  0.00  0.00    +0.107 C 
ATOM     20  N   UNL     1       2.050   6.418  -0.008  0.00  0.00    -0.216 NA
ENDBRANCH  18  20
ENDBRANCH  17  18
ENDBRANCH  16  17
ENDBRANCH   1  16
TORSDOF 4
ENDMDL
MODEL 5
REMARK VINA RESULT:      -6.9      4.611      7.758
REMARK  Name = 
REMARK  4 active torsions:
REMARK  status: ('A' for Active; 'I' for Inactive)
REMARK    1  A    between atoms: N_2  and  C_3
REMARK    2  A    between atoms: C_3  and  C_4
REMARK    3  A    between atoms: C_4  and  C_5
REMARK    4  A    between atoms: C_5  and  N_6
REMARK                            x       y       z     vdW  Elec       q    Type
REMARK                         _______ _______ _______ _____ _____    ______ ____
ROOT
ATOM      1  N   UNL     1       3.577   6.245 -10.425  0.00  0.00    -0.287 N 
ATOM      2  C   UNL     1       2.410   5.925 -11.193  0.00  0.00    +0.048 A 
ATOM      3  C   UNL     1       2.399   5.749 -12.571  0.00  0.00    -0.008 A 
ATOM      4  C   UNL     1       1.269   5.222 -13.152  0.00  0.00    -0.003 A 
ATOM      5  C   UNL     1       0.304   4.586 -12.384  0.00  0.00    -0.000 A 
ATOM      6  C   UNL     1       0.415   4.554 -11.001  0.00  0.00    +0.001 A 
ATOM      7  C   UNL     1       3.550   5.903 -13.512  0.00  0.00    +0.032 C 
ATOM      8  C   UNL     1       4.704   5.000 -13.138  0.00  0.00    +0.032 C 
ATOM      9  C   UNL     1       5.481   5.530 -11.976  0.00  0.00    -0.008 A 
ATOM     10  C   UNL     1       6.852   5.439 -12.158  0.00  0.00    -0.003 A 
ATOM     11  C   UNL     1       7.656   5.530 -11.034  0.00  0.00    -0.000 A 
ATOM     12  C   UNL     1       7.079   5.704  -9.790  0.00  0.00    +0.001 A 
ATOM     13  C   UNL     1       5.789   6.167  -9.732  0.00  0.00    +0.015 A 
ATOM     14  C   UNL     1       1.386   5.377 -10.448  0.00  0.00    +0.015 A 
ATOM     15  C   UNL     1       4.944   6.112 -10.833  0.00  0.00    +0.048 A 
ENDROOT
BRANCH   1  16
ATOM     16  C   UNL     1       3.351   6.184  -8.987  0.00  0.00    +0.097 C 
BRANCH  16  17
ATOM     17  C   UNL     1       2.755   7.462  -8.451  0.00  0.00    +0.041 C 
BRANCH  17  18
ATOM     18  C   UNL     1       2.234   7.149  -7.055  0.00  0.00    +0.091 C 
BRANCH  18  20
ATOM     19  C   UNL     1       2.976   6.748  -4.813  0.00  0.00    +0.107 C 
ATOM     20  N   UNL     1       3.296   7.343  -6.096  0.00  0.00    -0.216 NA
ENDBRANCH  18  20
ENDBRANCH  17  18
ENDBRANCH  16  17
ENDBRANCH   1  16
TORSDOF 4
ENDMDL
MODEL 6
REMARK VINA RESULT:      -6.9      1.842      5.690
REMARK  Name = 
REMARK  4 active torsions:
REMARK  status: ('A' for Active; 'I' for Inactive)
REMARK    1  A    between atoms: N_2  and  C_3
REMARK    2  A    between atoms: C_3  and  C_4
REMARK    3  A    between atoms: C_4  and  C_5
REMARK    4  A    between atoms: C_5  and  N_6
REMARK                            x       y       z     vdW  Elec       q    Type
REMARK                         _______ _______ _______ _____ _____    ______ ____
ROOT
ATOM      1  N   UNL     1       0.852   5.792  -5.240  0.00  0.00    -0.287 N 
ATOM      2  C   UNL     1      -0.315   6.144  -4.487  0.00  0.00    +0.048 A 
ATOM      3  C   UNL     1      -0.501   5.853  -3.140  0.00  0.00    -0.008 A 
ATOM      4  C   UNL     1      -1.557   6.445  -2.485  0.00  0.00    -0.003 A 
ATOM      5  C   UNL     1      -2.216   7.534  -3.037  0.00  0.00    -0.000 A 
ATOM      6  C   UNL     1      -1.886   7.988  -4.305  0.00  0.00    +0.001 A 
ATOM      7  C   UNL     1       0.421   5.093  -2.244  0.00  0.00    +0.032 C 
ATOM      8  C   UNL     1       1.796   5.721  -2.192  0.00  0.00    +0.032 C 
ATOM      9  C   UNL     1       2.602   5.413  -3.413  0.00  0.00    -0.008 A 
ATOM     10  C   UNL     1       3.912   5.066  -3.121  0.00  0.00    -0.003 A 
ATOM     11  C   UNL     1       4.838   5.135  -4.148  0.00  0.00    -0.000 A 
ATOM     12  C   UNL     1       4.439   5.542  -5.406  0.00  0.00    +0.001 A 
ATOM     13  C   UNL     1       3.103   5.492  -5.711  0.00  0.00    +0.015 A 
ATOM     14  C   UNL     1      -1.057   7.163  -5.052  0.00  0.00    +0.015 A 
ATOM     15  C   UNL     1       2.132   5.408  -4.722  0.00  0.00    +0.048 A 
ENDROOT
BRANCH   1  16
ATOM     16  C   UNL     1       0.874   6.380  -6.572  0.00  0.00    +0.097 C 
BRANCH  16  17
ATOM     17  C   UNL     1       0.204   5.497  -7.594  0.00  0.00    +0.041 C 
BRANCH  17  18
ATOM     18  C   UNL     1       1.005   5.635  -8.882  0.00  0.00    +0.091 C 
BRANCH  18  20
ATOM     19  C   UNL     1       3.224   4.893  -9.396  0.00  0.00    +0.107 C 
ATOM     20  N   UNL     1       1.880   4.496  -9.024  0.00  0.00    -0.216 NA
ENDBRANCH  18  20
ENDBRANCH  17  18
ENDBRANCH  16  17
ENDBRANCH   1  16
TORSDOF 4
ENDMDL
MODEL 7
REMARK VINA RESULT:      -6.9      5.188      9.087
REMARK  Name = 
REMARK  4 active torsions:
REMARK  status: ('A' for Active; 'I' for Inactive)
REMARK    1  A    between atoms: N_2  and  C_3
REMARK    2  A    between atoms: C_3  and  C_4
REMARK    3  A    between atoms: C_4  and  C_5
REMARK    4  A    between atoms: C_5  and  N_6
REMARK                            x       y       z     vdW  Elec       q    Type
REMARK                         _______ _______ _______ _____ _____    ______ ____
ROOT
ATOM      1  N   UNL     1       3.238   5.599 -11.399  0.00  0.00    -0.287 N 
ATOM      2  C   UNL     1       1.869   5.909 -11.689  0.00  0.00    +0.048 A 
ATOM      3  C   UNL     1       0.810   5.689 -10.816  0.00  0.00    -0.008 A 
ATOM      4  C   UNL     1      -0.413   6.241 -11.123  0.00  0.00    -0.003 A 
ATOM      5  C   UNL     1      -0.522   7.242 -12.078  0.00  0.00    -0.000 A 
ATOM      6  C   UNL     1       0.585   7.639 -12.811  0.00  0.00    +0.001 A 
ATOM      7  C   UNL     1       0.869   5.057  -9.464  0.00  0.00    +0.032 C 
ATOM      8  C   UNL     1       1.823   5.788  -8.545  0.00  0.00    +0.032 C 
ATOM      9  C   UNL     1       3.252   5.465  -8.845  0.00  0.00    -0.008 A 
ATOM     10  C   UNL     1       4.003   5.235  -7.703  0.00  0.00    -0.003 A 
ATOM     11  C   UNL     1       5.381   5.309  -7.816  0.00  0.00    -0.000 A 
ATOM     12  C   UNL     1       5.955   5.607  -9.037  0.00  0.00    +0.001 A 
ATOM     13  C   UNL     1       5.197   5.439 -10.168  0.00  0.00    +0.015 A 
ATOM     14  C   UNL     1       1.710   6.833 -12.702  0.00  0.00    +0.015 A 
ATOM     15  C   UNL     1       3.813   5.345 -10.111  0.00  0.00    +0.048 A 
ENDROOT
BRANCH   1  16
ATOM     16  C   UNL     1       4.165   6.104 -12.402  0.00  0.00    +0.097 C 
BRANCH  16  17
ATOM     17  C   UNL     1       4.796   4.993 -13.203  0.00  0.00    +0.041 C 
BRANCH  17  18
ATOM     18  C   UNL     1       6.035   5.581 -13.866  0.00  0.00    +0.091 C 
BRANCH  18  20
ATOM     19  C   UNL     1       8.038   5.650 -12.556  0.00  0.00    +0.107 C 
ATOM     20  N   UNL     1       7.201   4.851 -13.429  0.00  0.00    -0.216 NA
ENDBRANCH  18  20
ENDBRANCH  17  18
ENDBRANCH  16  17
ENDBRANCH   1  16
TORSDOF 4
ENDMDL
MODEL 8
REMARK VINA RESULT:      -6.9      1.171      4.209
REMARK  Name = 
REMARK  4 active torsions:
REMARK  status: ('A' for Active; 'I' for Inactive)
REMARK    1  A    between atoms: N_2  and  C_3
REMARK    2  A    between atoms: C_3  and  C_4
REMARK    3  A    between atoms: C_4  and  C_5
REMARK    4  A    between atoms: C_5  and  N_6
REMARK                            x       y       z     vdW  Elec       q    Type
REMARK                         _______ _______ _______ _____ _____    ______ ____
ROOT
ATOM      1  N   UNL     1       1.056   6.119  -4.857  0.00  0.00    -0.287 N 
ATOM      2  C   UNL     1       0.684   6.257  -6.233  0.00  0.00    +0.048 A 
ATOM      3  C   UNL     1       1.526   6.728  -7.233  0.00  0.00    -0.008 A 
ATOM      4  C   UNL     1       1.122   6.594  -8.542  0.00  0.00    -0.003 A 
ATOM      5  C   UNL     1       0.083   5.740  -8.883  0.00  0.00    -0.000 A 
ATOM      6  C   UNL     1      -0.633   5.077  -7.898  0.00  0.00    +0.001 A 
ATOM      7  C   UNL     1       2.928   7.221  -7.078  0.00  0.00    +0.032 C 
ATOM      8  C   UNL     1       3.822   6.176  -6.448  0.00  0.00    +0.032 C 
ATOM      9  C   UNL     1       3.611   6.070  -4.971  0.00  0.00    -0.008 A 
ATOM     10  C   UNL     1       4.799   5.986  -4.262  0.00  0.00    -0.003 A 
ATOM     11  C   UNL     1       4.739   5.506  -2.964  0.00  0.00    -0.000 A 
ATOM     12  C   UNL     1       3.522   5.132  -2.427  0.00  0.00    +0.001 A 
ATOM     13  C   UNL     1       2.378   5.596  -3.024  0.00  0.00    +0.015 A 
ATOM     14  C   UNL     1      -0.410   5.496  -6.594  0.00  0.00    +0.015 A 
ATOM     15  C   UNL     1       2.384   6.101  -4.318  0.00  0.00    +0.048 A 
ENDROOT
BRANCH   1  16
ATOM     16  C   UNL     1       0.054   5.426  -4.058  0.00  0.00    +0.097 C 
BRANCH  16  17
ATOM     17  C   UNL     1      -0.842   6.384  -3.315  0.00  0.00    +0.041 C 
BRANCH  17  18
ATOM     18  C   UNL     1      -1.256   5.685  -2.027  0.00  0.00    +0.091 C 
BRANCH  18  20
ATOM     19  C   UNL     1      -3.442   5.821  -2.997  0.00  0.00    +0.107 C 
ATOM     20  N   UNL     1      -2.513   5.007  -2.236  0.00  0.00    -0.216 NA
ENDBRANCH  18  20
ENDBRANCH  17  18
ENDBRANCH  16  17
ENDBRANCH   1  16
TORSDOF 4
ENDMDL
MODEL 9
REMARK VINA RESULT:      -6.9      1.625      4.753
REMARK  Name = 
REMARK  4 active torsions:
REMARK  status: ('A' for Active; 'I' for Inactive)
REMARK    1  A    between atoms: N_2  and  C_3
REMARK    2  A    between atoms: C_3  and  C_4
REMARK    3  A    between atoms: C_4  and  C_5
REMARK    4  A    between atoms: C_5  and  N_6
REMARK                            x       y       z     vdW  Elec       q    Type
REMARK                         _______ _______ _______ _____ _____    ______ ____
ROOT
ATOM      1  N   UNL     1       0.487   6.290  -4.624  0.00  0.00    -0.287 N 
ATOM      2  C   UNL     1      -0.643   6.414  -3.752  0.00  0.00    +0.048 A 
ATOM      3  C   UNL     1      -1.946   6.642  -4.180  0.00  0.00    -0.008 A 
ATOM      4  C   UNL     1      -2.965   6.511  -3.264  0.00  0.00    -0.003 A 
ATOM      5  C   UNL     1      -2.756   5.865  -2.054  0.00  0.00    -0.000 A 
ATOM      6  C   UNL     1      -1.489   5.423  -1.702  0.00  0.00    +0.001 A 
ATOM      7  C   UNL     1      -2.414   6.850  -5.583  0.00  0.00    +0.032 C 
ATOM      8  C   UNL     1      -2.041   5.687  -6.476  0.00  0.00    +0.032 C 
ATOM      9  C   UNL     1      -0.598   5.718  -6.868  0.00  0.00    -0.008 A 
ATOM     10  C   UNL     1      -0.399   5.439  -8.212  0.00  0.00    -0.003 A 
ATOM     11  C   UNL     1       0.873   5.063  -8.607  0.00  0.00    -0.000 A 
ATOM     12  C   UNL     1       1.885   4.977  -7.670  0.00  0.00    +0.001 A 
ATOM     13  C   UNL     1       1.719   5.625  -6.473  0.00  0.00    +0.015 A 
ATOM     14  C   UNL     1      -0.444   5.868  -2.500  0.00  0.00    +0.015 A 
ATOM     15  C   UNL     1       0.467   6.036  -6.035  0.00  0.00    +0.048 A 
ENDROOT
BRANCH   1  16
ATOM     16  C   UNL     1       1.698   5.864  -3.935  0.00  0.00    +0.097 C 
BRANCH  16  17
ATOM     17  C   UNL     1       2.602   7.025  -3.605  0.00  0.00    +0.041 C 
BRANCH  17  18
ATOM     18  C   UNL     1       3.258   6.702  -2.270  0.00  0.00    +0.091 C 
BRANCH  18  20
ATOM     19  C   UNL     1       4.032   4.726  -1.159  0.00  0.00    +0.107 C 
ATOM     20  N   UNL     1       4.019   5.482  -2.397  0.00  0.00    -0.216 NA
ENDBRANCH  18  20
ENDBRANCH  17  18
ENDBRANCH  16  17
ENDBRANCH   1  16
TORSDOF 4
ENDMDL
