MODEL 1
REMARK VINA RESULT:      -4.8      0.000      0.000
REMARK  Name = 
REMARK  5 active torsions:
REMARK  status: ('A' for Active; 'I' for Inactive)
REMARK    1  A    between atoms: C_2  and  C_3
REMARK    2  A    between atoms: C_3  and  C_5
REMARK    3  A    between atoms: C_5  and  C_7
REMARK    4  A    between atoms: C_7  and  C_9
REMARK    5  A    between atoms: C_9  and  C_11
REMARK                            x       y       z     vdW  Elec       q    Type
REMARK                         _______ _______ _______ _____ _____    ______ ____
ROOT
ATOM      1  C   UNL     1       2.283   6.519  -2.958  0.00  0.00    +0.225 C 
ATOM      2  O   UNL     1       2.677   6.835  -4.381  0.00  0.00    -0.217 OA
ENDROOT
BRANCH   1   3
ATOM      3  C   UNL     1       3.367   5.168  -2.808  0.00  0.00    +0.258 C 
ATOM      4  F   UNL     1       4.622   5.994  -3.070  0.00  0.00    -0.226 F 
BRANCH   3   6
ATOM      5  O   UNL     1       4.394   4.637  -0.713  0.00  0.00    -0.285 OA
ATOM      6  C   UNL     1       3.537   5.327  -1.186  0.00  0.00    +0.245 C 
ENDBRANCH   3   6
ENDBRANCH   1   3
BRANCH   1   7
ATOM      7  C   UNL     1       0.926   5.639  -3.540  0.00  0.00    +0.218 C 
ATOM      8  O   UNL     1       0.342   6.829  -4.265  0.00  0.00    -0.217 OA
BRANCH   7   9
ATOM      9  C   UNL     1      -0.068   5.886  -2.144  0.00  0.00    +0.218 C 
ATOM     10  O   UNL     1       0.214   4.476  -1.626  0.00  0.00    -0.217 OA
BRANCH   9  11
ATOM     11  C   UNL     1      -1.405   5.398  -2.979  0.00  0.00    +0.217 C 
ATOM     12  O   UNL     1      -2.295   4.924  -2.073  0.00  0.00    -0.217 OA
ENDBRANCH   9  11
ENDBRANCH   7   9
ENDBRANCH   1   7
TORSDOF 5
ENDMDL
MODEL 2
REMARK VINA RESULT:      -4.7      4.604      6.333
REMARK  Name = 
REMARK  5 active torsions:
REMARK  status: ('A' for Active; 'I' for Inactive)
REMARK    1  A    between atoms: C_2  and  C_3
REMARK    2  A    between atoms: C_3  and  C_5
REMARK    3  A    between atoms: C_5  and  C_7
REMARK    4  A    between atoms: C_7  and  C_9
REMARK    5  A    between atoms: C_9  and  C_11
REMARK                            x       y       z     vdW  Elec       q    Type
REMARK                         _______ _______ _______ _____ _____    ______ ____
ROOT
ATOM      1  C   UNL     1       2.607   6.821  -8.069  0.00  0.00    +0.225 C 
ATOM      2  O   UNL     1       2.102   8.223  -7.825  0.00  0.00    -0.217 OA
ENDROOT
BRANCH   1   3
ATOM      3  C   UNL     1       1.071   6.212  -8.612  0.00  0.00    +0.258 C 
ATOM      4  F   UNL     1       0.971   7.176  -9.789  0.00  0.00    -0.226 F 
BRANCH   3   6
ATOM      5  O   UNL     1       0.938   4.463 -10.240  0.00  0.00    -0.285 OA
ATOM      6  C   UNL     1       1.730   5.046  -9.556  0.00  0.00    +0.245 C 
ENDBRANCH   3   6
ENDBRANCH   1   3
BRANCH   1   7
ATOM      7  C   UNL     1       2.397   6.467  -6.400  0.00  0.00    +0.218 C 
ATOM      8  O   UNL     1       3.445   7.460  -5.958  0.00  0.00    -0.217 OA
BRANCH   7   9
ATOM      9  C   UNL     1       3.507   5.137  -6.352  0.00  0.00    +0.218 C 
ATOM     10  O   UNL     1       2.368   4.117  -6.359  0.00  0.00    -0.217 OA
BRANCH   9  11
ATOM     11  C   UNL     1       3.547   5.200  -4.704  0.00  0.00    +0.217 C 
ATOM     12  O   UNL     1       4.781   4.791  -4.316  0.00  0.00    -0.217 OA
ENDBRANCH   9  11
ENDBRANCH   7   9
ENDBRANCH   1   7
TORSDOF 5
ENDMDL
MODEL 3
REMARK VINA RESULT:      -4.7      1.458      2.947
REMARK  Name = 
REMARK  5 active torsions:
REMARK  status: ('A' for Active; 'I' for Inactive)
REMARK    1  A    between atoms: C_2  and  C_3
REMARK    2  A    between atoms: C_3  and  C_5
REMARK    3  A    between atoms: C_5  and  C_7
REMARK    4  A    between atoms: C_7  and  C_9
REMARK    5  A    between atoms: C_9  and  C_11
REMARK                            x       y       z     vdW  Elec       q    Type
REMARK                         _______ _______ _______ _____ _____    ______ ____
ROOT
ATOM      1  C   UNL     1       1.870   5.377  -3.420  0.00  0.00    +0.225 C 
ATOM      2  O   UNL     1       2.674   5.211  -2.152  0.00  0.00    -0.217 OA
ENDROOT
BRANCH   1   3
ATOM      3  C   UNL     1       2.520   6.946  -3.793  0.00  0.00    +0.258 C 
ATOM      4  F   UNL     1       3.970   6.476  -3.798  0.00  0.00    -0.226 F 
BRANCH   3   6
ATOM      5  O   UNL     1       3.173   7.400  -6.050  0.00  0.00    -0.285 OA
ATOM      6  C   UNL     1       2.395   6.748  -5.415  0.00  0.00    +0.245 C 
ENDBRANCH   3   6
ENDBRANCH   1   3
BRANCH   1   7
ATOM      7  C   UNL     1       0.531   5.918  -2.488  0.00  0.00    +0.218 C 
ATOM      8  O   UNL     1       0.375   4.599  -1.769  0.00  0.00    -0.217 OA
BRANCH   7   9
ATOM      9  C   UNL     1      -0.681   5.526  -3.661  0.00  0.00    +0.218 C 
ATOM     10  O   UNL     1      -0.835   6.991  -4.070  0.00  0.00    -0.217 OA
BRANCH   9  11
ATOM     11  C   UNL     1      -1.862   5.640  -2.514  0.00  0.00    +0.217 C 
ATOM     12  O   UNL     1      -2.785   4.686  -2.789  0.00  0.00    -0.217 OA
ENDBRANCH   9  11
ENDBRANCH   7   9
ENDBRANCH   1   7
TORSDOF 5
ENDMDL
MODEL 4
REMARK VINA RESULT:      -4.6      9.241     10.594
REMARK  Name = 
REMARK  5 active torsions:
REMARK  status: ('A' for Active; 'I' for Inactive)
REMARK    1  A    between atoms: C_2  and  C_3
REMARK    2  A    between atoms: C_3  and  C_5
REMARK    3  A    between atoms: C_5  and  C_7
REMARK    4  A    between atoms: C_7  and  C_9
REMARK    5  A    between atoms: C_9  and  C_11
REMARK                            x       y       z     vdW  Elec       q    Type
REMARK                         _______ _______ _______ _____ _____    ______ ____
ROOT
ATOM      1  C   UNL     1       5.821   5.601 -10.886  0.00  0.00    +0.225 C 
ATOM      2  O   UNL     1       5.165   6.422  -9.801  0.00  0.00    -0.217 OA
ENDROOT
BRANCH   1   3
ATOM      3  C   UNL     1       7.147   6.702 -11.112  0.00  0.00    +0.258 C 
ATOM      4  F   UNL     1       7.639   6.593  -9.673  0.00  0.00    -0.226 F 
BRANCH   3   6
ATOM      5  O   UNL     1       9.054   5.934 -12.339  0.00  0.00    -0.285 OA
ATOM      6  C   UNL     1       8.187   5.539 -11.612  0.00  0.00    +0.245 C 
ENDBRANCH   3   6
ENDBRANCH   1   3
BRANCH   1   7
ATOM      7  C   UNL     1       4.761   6.304 -12.043  0.00  0.00    +0.218 C 
ATOM      8  O   UNL     1       3.518   5.763 -11.378  0.00  0.00    -0.217 OA
BRANCH   7   9
ATOM      9  C   UNL     1       4.834   4.998 -13.178  0.00  0.00    +0.218 C 
ATOM     10  O   UNL     1       5.804   5.762 -14.078  0.00  0.00    -0.217 OA
BRANCH   9  11
ATOM     11  C   UNL     1       3.511   5.583 -13.972  0.00  0.00    +0.217 C 
ATOM     12  O   UNL     1       2.800   4.515 -14.410  0.00  0.00    -0.217 OA
ENDBRANCH   9  11
ENDBRANCH   7   9
ENDBRANCH   1   7
TORSDOF 5
ENDMDL
MODEL 5
REMARK VINA RESULT:      -4.6      8.512     10.492
REMARK  Name = 
REMARK  5 active torsions:
REMARK  status: ('A' for Active; 'I' for Inactive)
REMARK    1  A    between atoms: C_2  and  C_3
REMARK    2  A    between atoms: C_3  and  C_5
REMARK    3  A    between atoms: C_5  and  C_7
REMARK    4  A    between atoms: C_7  and  C_9
REMARK    5  A    between atoms: C_9  and  C_11
REMARK                            x       y       z     vdW  Elec       q    Type
REMARK                         _______ _______ _______ _____ _____    ______ ____
ROOT
ATOM      1  C   UNL     1       3.978   6.692 -10.708  0.00  0.00    +0.225 C 
ATOM      2  O   UNL     1       4.012   6.565  -9.203  0.00  0.00    -0.217 OA
ENDROOT
BRANCH   1   3
ATOM      3  C   UNL     1       2.616   5.630 -10.908  0.00  0.00    +0.258 C 
ATOM      4  F   UNL     1       1.644   6.543 -10.168  0.00  0.00    -0.226 F 
BRANCH   3   6
ATOM      5  O   UNL     1       1.815   5.443 -13.155  0.00  0.00    -0.285 OA
ATOM      6  C   UNL     1       2.184   6.258 -12.359  0.00  0.00    +0.245 C 
ENDBRANCH   3   6
ENDBRANCH   1   3
BRANCH   1   7
ATOM      7  C   UNL     1       5.203   5.491 -10.825  0.00  0.00    +0.218 C 
ATOM      8  O   UNL     1       6.216   6.311 -10.064  0.00  0.00    -0.217 OA
BRANCH   7   9
ATOM      9  C   UNL     1       5.813   5.998 -12.365  0.00  0.00    +0.218 C 
ATOM     10  O   UNL     1       5.202   4.786 -13.067  0.00  0.00    -0.217 OA
BRANCH   9  11
ATOM     11  C   UNL     1       7.239   5.217 -12.084  0.00  0.00    +0.217 C 
ATOM     12  O   UNL     1       7.674   4.733 -13.273  0.00  0.00    -0.217 OA
ENDBRANCH   9  11
ENDBRANCH   7   9
ENDBRANCH   1   7
TORSDOF 5
ENDMDL
MODEL 6
REMARK VINA RESULT:      -4.6      2.811      5.344
REMARK  Name = 
REMARK  5 active torsions:
REMARK  status: ('A' for Active; 'I' for Inactive)
REMARK    1  A    between atoms: C_2  and  C_3
REMARK    2  A    between atoms: C_3  and  C_5
REMARK    3  A    between atoms: C_5  and  C_7
REMARK    4  A    between atoms: C_7  and  C_9
REMARK    5  A    between atoms: C_9  and  C_11
REMARK                            x       y       z     vdW  Elec       q    Type
REMARK                         _______ _______ _______ _____ _____    ______ ____
ROOT
ATOM      1  C   UNL     1      -1.489   6.102  -2.285  0.00  0.00    +0.225 C 
ATOM      2  O   UNL     1      -2.236   4.814  -2.031  0.00  0.00    -0.217 OA
ENDROOT
BRANCH   1   3
ATOM      3  C   UNL     1      -2.307   6.446  -3.780  0.00  0.00    +0.258 C 
ATOM      4  F   UNL     1      -3.689   6.532  -3.141  0.00  0.00    -0.226 F 
BRANCH   3   6
ATOM      5  O   UNL     1      -1.732   8.587  -4.681  0.00  0.00    -0.285 OA
ATOM      6  C   UNL     1      -2.095   8.066  -3.665  0.00  0.00    +0.245 C 
ENDBRANCH   3   6
ENDBRANCH   1   3
BRANCH   1   7
ATOM      7  C   UNL     1      -0.188   5.201  -2.958  0.00  0.00    +0.218 C 
ATOM      8  O   UNL     1       0.161   4.540  -1.645  0.00  0.00    -0.217 OA
BRANCH   7   9
ATOM      9  C   UNL     1       1.012   6.434  -2.760  0.00  0.00    +0.218 C 
ATOM     10  O   UNL     1       1.014   6.748  -4.256  0.00  0.00    -0.217 OA
BRANCH   9  11
ATOM     11  C   UNL     1       2.218   5.318  -2.912  0.00  0.00    +0.217 C 
ATOM     12  O   UNL     1       3.291   5.954  -3.443  0.00  0.00    -0.217 OA
ENDBRANCH   9  11
ENDBRANCH   7   9
ENDBRANCH   1   7
TORSDOF 5
ENDMDL
MODEL 7
REMARK VINA RESULT:      -4.5      5.007      5.989
REMARK  Name = 
REMARK  5 active torsions:
REMARK  status: ('A' for Active; 'I' for Inactive)
REMARK    1  A    between atoms: C_2  and  C_3
REMARK    2  A    between atoms: C_3  and  C_5
REMARK    3  A    between atoms: C_5  and  C_7
REMARK    4  A    between atoms: C_7  and  C_9
REMARK    5  A    between atoms: C_9  and  C_11
REMARK                            x       y       z     vdW  Elec       q    Type
REMARK                         _______ _______ _______ _____ _____    ______ ____
ROOT
ATOM      1  C   UNL     1       1.749   6.917  -7.500  0.00  0.00    +0.225 C 
ATOM      2  O   UNL     1       2.228   8.303  -7.863  0.00  0.00    -0.217 OA
ENDROOT
BRANCH   1   3
ATOM      3  C   UNL     1       3.267   6.418  -6.815  0.00  0.00    +0.258 C 
ATOM      4  F   UNL     1       3.283   7.511  -5.752  0.00  0.00    -0.226 F 
BRANCH   3   6
ATOM      5  O   UNL     1       3.369   4.596  -5.268  0.00  0.00    -0.285 OA
ATOM      6  C   UNL     1       2.588   5.346  -5.779  0.00  0.00    +0.245 C 
ENDBRANCH   3   6
ENDBRANCH   1   3
BRANCH   1   7
ATOM      7  C   UNL     1       2.061   6.400  -9.109  0.00  0.00    +0.218 C 
ATOM      8  O   UNL     1       0.983   7.275  -9.703  0.00  0.00    -0.217 OA
BRANCH   7   9
ATOM      9  C   UNL     1       1.031   5.008  -9.059  0.00  0.00    +0.218 C 
ATOM     10  O   UNL     1       2.226   4.059  -8.980  0.00  0.00    -0.217 OA
BRANCH   9  11
ATOM     11  C   UNL     1       0.992   4.949 -10.708  0.00  0.00    +0.217 C 
ATOM     12  O   UNL     1      -0.220   4.456 -11.064  0.00  0.00    -0.217 OA
ENDBRANCH   9  11
ENDBRANCH   7   9
ENDBRANCH   1   7
TORSDOF 5
ENDMDL
MODEL 8
REMARK VINA RESULT:      -4.5      3.783      5.388
REMARK  Name = 
REMARK  5 active torsions:
REMARK  status: ('A' for Active; 'I' for Inactive)
REMARK    1  A    between atoms: C_2  and  C_3
REMARK    2  A    between atoms: C_3  and  C_5
REMARK    3  A    between atoms: C_5  and  C_7
REMARK    4  A    between atoms: C_7  and  C_9
REMARK    5  A    between atoms: C_9  and  C_11
REMARK                            x       y       z     vdW  Elec       q    Type
REMARK                         _______ _______ _______ _____ _____    ______ ____
ROOT
ATOM      1  C   UNL     1      -1.758   5.456  -5.327  0.00  0.00    +0.225 C 
ATOM      2  O   UNL     1      -2.572   6.394  -6.187  0.00  0.00    -0.217 OA
ENDROOT
BRANCH   1   3
ATOM      3  C   UNL     1      -1.714   6.525  -3.957  0.00  0.00    +0.258 C 
ATOM      4  F   UNL     1      -3.228   6.556  -3.781  0.00  0.00    -0.226 F 
BRANCH   3   6
ATOM      5  O   UNL     1      -2.580   5.018  -2.312  0.00  0.00    -0.285 OA
ATOM      6  C   UNL     1      -1.559   5.316  -2.863  0.00  0.00    +0.245 C 
ENDBRANCH   3   6
ENDBRANCH   1   3
BRANCH   1   7
ATOM      7  C   UNL     1      -0.323   6.023  -6.086  0.00  0.00    +0.218 C 
ATOM      8  O   UNL     1      -0.727   5.514  -7.449  0.00  0.00    -0.217 OA
BRANCH   7   9
ATOM      9  C   UNL     1       0.633   4.620  -5.744  0.00  0.00    +0.218 C 
ATOM     10  O   UNL     1       1.391   5.341  -4.629  0.00  0.00    -0.217 OA
BRANCH   9  11
ATOM     11  C   UNL     1       1.735   5.063  -6.889  0.00  0.00    +0.217 C 
ATOM     12  O   UNL     1       2.327   3.929  -7.339  0.00  0.00    -0.217 OA
ENDBRANCH   9  11
ENDBRANCH   7   9
ENDBRANCH   1   7
TORSDOF 5
ENDMDL
MODEL 9
REMARK VINA RESULT:      -4.5      9.454     10.335
REMARK  Name = 
REMARK  5 active torsions:
REMARK  status: ('A' for Active; 'I' for Inactive)
REMARK    1  A    between atoms: C_2  and  C_3
REMARK    2  A    between atoms: C_3  and  C_5
REMARK    3  A    between atoms: C_5  and  C_7
REMARK    4  A    between atoms: C_7  and  C_9
REMARK    5  A    between atoms: C_9  and  C_11
REMARK                            x       y       z     vdW  Elec       q    Type
REMARK                         _______ _______ _______ _____ _____    ______ ____
ROOT
ATOM      1  C   UNL     1       6.658   6.084 -12.922  0.00  0.00    +0.225 C 
ATOM      2  O   UNL     1       7.071   5.203 -14.077  0.00  0.00    -0.217 OA
ENDROOT
BRANCH   1   3
ATOM      3  C   UNL     1       7.567   5.195 -11.736  0.00  0.00    +0.258 C 
ATOM      4  F   UNL     1       8.916   5.462 -12.396  0.00  0.00    -0.226 F 
BRANCH   3   6
ATOM      5  O   UNL     1       7.556   6.225  -9.576  0.00  0.00    -0.285 OA
ATOM      6  C   UNL     1       7.745   6.477 -10.732  0.00  0.00    +0.245 C 
ENDBRANCH   3   6
ENDBRANCH   1   3
BRANCH   1   7
ATOM      7  C   UNL     1       5.195   5.194 -12.779  0.00  0.00    +0.218 C 
ATOM      8  O   UNL     1       4.595   5.792 -14.030  0.00  0.00    -0.217 OA
BRANCH   7   9
ATOM      9  C   UNL     1       4.391   6.324 -11.743  0.00  0.00    +0.218 C 
ATOM     10  O   UNL     1       4.440   5.357 -10.560  0.00  0.00    -0.217 OA
BRANCH   9  11
ATOM     11  C   UNL     1       2.919   5.767 -12.238  0.00  0.00    +0.217 C 
ATOM     12  O   UNL     1       1.977   6.412 -11.506  0.00  0.00    -0.217 OA
ENDBRANCH   9  11
ENDBRANCH   7   9
ENDBRANCH   1   7
TORSDOF 5
ENDMDL
