MODEL 1
REMARK VINA RESULT:     -10.1      0.000      0.000
REMARK  Name = 
REMARK  6 active torsions:
REMARK  status: ('A' for Active; 'I' for Inactive)
REMARK    1  A    between atoms: C_3  and  C_4
REMARK    2  A    between atoms: N_6  and  C_7
REMARK    3  A    between atoms: C_10  and  N_11
REMARK    4  A    between atoms: C_24  and  C_25
REMARK    5  A    between atoms: C_28  and  O_29
REMARK    6  A    between atoms: O_29  and  C_30
REMARK                            x       y       z     vdW  Elec       q    Type
REMARK                         _______ _______ _______ _____ _____    ______ ____
ROOT
ATOM      1  C   UNL     1      -0.301   5.039  -1.916  0.00  0.00    +0.031 C 
ATOM      2  C   UNL     1      -0.193   6.222  -1.151  0.00  0.00    -0.017 A 
ATOM      3  C   UNL     1      -1.244   7.095  -1.025  0.00  0.00    -0.004 A 
ATOM      4  C   UNL     1      -1.364   7.912   0.083  0.00  0.00    -0.000 A 
ATOM      5  C   UNL     1      -0.217   8.171   0.780  0.00  0.00    +0.000 A 
ATOM      6  C   UNL     1       0.926   7.441   0.517  0.00  0.00    +0.004 A 
ATOM      7  C   UNL     1       1.017   6.590  -0.578  0.00  0.00    +0.051 A 
ENDROOT
BRANCH   3   8
ATOM      8  C   UNL     1      -2.219   7.113  -2.125  0.00  0.00    -0.000 A 
ATOM      9  C   UNL     1      -3.132   6.112  -2.361  0.00  0.00    +0.003 A 
ATOM     10  C   UNL     1      -3.285   5.689  -3.677  0.00  0.00    +0.037 A 
ATOM     11  C   UNL     1      -2.683   6.338  -4.747  0.00  0.00    +0.147 A 
ATOM     12  C   UNL     1      -2.219   7.618  -4.488  0.00  0.00    +0.037 A 
ATOM     13  C   UNL     1      -2.022   8.008  -3.170  0.00  0.00    +0.003 A 
BRANCH  11  14
ATOM     14  O   UNL     1      -2.184   5.638  -5.854  0.00  0.00    -0.404 OA
BRANCH  14  15
ATOM     15  C   UNL     1      -0.790   5.500  -6.003  0.00  0.00    +0.575 C 
ATOM     16  F   UNL     1      -0.154   6.692  -6.291  0.00  0.00    -0.133 F 
ATOM     17  F   UNL     1      -0.217   5.024  -4.831  0.00  0.00    -0.133 F 
ATOM     18  F   UNL     1      -0.576   4.618  -7.058  0.00  0.00    -0.133 F 
ENDBRANCH  14  15
ENDBRANCH  11  14
ENDBRANCH   3   8
BRANCH   7  19
ATOM     19  C   UNL     1       2.241   5.988  -1.053  0.00  0.00    +0.269 C 
ATOM     20  N   UNL     1       2.437   5.511  -2.392  0.00  0.00    -0.174 NA
ATOM     21  O   UNL     1       3.324   6.040  -0.392  0.00  0.00    -0.268 OA
BRANCH  20  22
ATOM     22  C   UNL     1       3.477   6.075  -3.217  0.00  0.00    +0.093 A 
ATOM     23  C   UNL     1       4.428   5.157  -3.657  0.00  0.00    +0.117 A 
ATOM     24  N   UNL     1       4.804   5.091  -4.961  0.00  0.00    -0.228 NA
ATOM     25  C   UNL     1       4.169   5.814  -5.920  0.00  0.00    +0.132 A 
ATOM     26  C   UNL     1       3.698   7.029  -5.450  0.00  0.00    +0.036 A 
ATOM     27  C   UNL     1       3.206   7.072  -4.149  0.00  0.00    +0.021 A 
BRANCH  25  28
ATOM     28  N   UNL     1       3.858   5.236  -7.159  0.00  0.00    -0.288 N 
ATOM     29  C   UNL     1       2.582   4.837  -7.658  0.00  0.00    +0.122 C 
ATOM     30  C   UNL     1       2.214   5.840  -8.914  0.00  0.00    +0.135 C 
ATOM     31  C   UNL     1       1.307   4.694  -9.681  0.00  0.00    +0.034 C 
ATOM     32  O   UNL     1       3.444   5.427  -9.700  0.00  0.00    -0.355 OA
ATOM     33  C   UNL     1       4.471   6.357  -9.089  0.00  0.00    +0.135 C 
ATOM     34  C   UNL     1       5.586   5.953 -10.233  0.00  0.00    +0.034 C 
ATOM     35  C   UNL     1       4.989   5.151  -8.090  0.00  0.00    +0.122 C 
ENDBRANCH  25  28
ENDBRANCH  20  22
ENDBRANCH   7  19
TORSDOF 6
ENDMDL
MODEL 2
REMARK VINA RESULT:      -9.9      1.851      2.537
REMARK  Name = 
REMARK  6 active torsions:
REMARK  status: ('A' for Active; 'I' for Inactive)
REMARK    1  A    between atoms: C_3  and  C_4
REMARK    2  A    between atoms: N_6  and  C_7
REMARK    3  A    between atoms: C_10  and  N_11
REMARK    4  A    between atoms: C_24  and  C_25
REMARK    5  A    between atoms: C_28  and  O_29
REMARK    6  A    between atoms: O_29  and  C_30
REMARK                            x       y       z     vdW  Elec       q    Type
REMARK                         _______ _______ _______ _____ _____    ______ ____
ROOT
ATOM      1  C   UNL     1       0.678   5.980  -1.551  0.00  0.00    +0.031 C 
ATOM      2  C   UNL     1       0.052   6.569  -0.429  0.00  0.00    -0.017 A 
ATOM      3  C   UNL     1      -1.313   6.626  -0.316  0.00  0.00    -0.004 A 
ATOM      4  C   UNL     1      -1.925   6.676   0.922  0.00  0.00    -0.000 A 
ATOM      5  C   UNL     1      -1.167   7.139   1.961  0.00  0.00    +0.000 A 
ATOM      6  C   UNL     1       0.196   7.296   1.801  0.00  0.00    +0.004 A 
ATOM      7  C   UNL     1       0.802   7.200   0.554  0.00  0.00    +0.051 A 
ENDROOT
BRANCH   3   8
ATOM      8  C   UNL     1      -2.077   6.633  -1.571  0.00  0.00    -0.000 A 
ATOM      9  C   UNL     1      -2.601   5.507  -2.161  0.00  0.00    +0.003 A 
ATOM     10  C   UNL     1      -2.427   5.368  -3.534  0.00  0.00    +0.037 A 
ATOM     11  C   UNL     1      -1.899   6.379  -4.327  0.00  0.00    +0.147 A 
ATOM     12  C   UNL     1      -1.887   7.643  -3.759  0.00  0.00    +0.037 A 
ATOM     13  C   UNL     1      -2.010   7.761  -2.381  0.00  0.00    +0.003 A 
BRANCH  11  14
ATOM     14  O   UNL     1      -1.057   6.106  -5.414  0.00  0.00    -0.404 OA
BRANCH  14  15
ATOM     15  C   UNL     1      -1.623   5.641  -6.617  0.00  0.00    +0.575 C 
ATOM     16  F   UNL     1      -0.861   5.945  -7.729  0.00  0.00    -0.133 F 
ATOM     17  F   UNL     1      -1.748   4.257  -6.596  0.00  0.00    -0.133 F 
ATOM     18  F   UNL     1      -2.865   6.253  -6.750  0.00  0.00    -0.133 F 
ENDBRANCH  14  15
ENDBRANCH  11  14
ENDBRANCH   3   8
BRANCH   7  19
ATOM     19  C   UNL     1       2.165   7.587   0.271  0.00  0.00    +0.269 C 
ATOM     20  N   UNL     1       3.308   6.760   0.535  0.00  0.00    -0.174 NA
ATOM     21  O   UNL     1       2.450   8.594  -0.447  0.00  0.00    -0.268 OA
BRANCH  20  22
ATOM     22  C   UNL     1       4.172   6.351  -0.545  0.00  0.00    +0.093 A 
ATOM     23  C   UNL     1       3.838   5.129  -1.124  0.00  0.00    +0.117 A 
ATOM     24  N   UNL     1       3.741   4.983  -2.471  0.00  0.00    -0.228 NA
ATOM     25  C   UNL     1       3.821   6.050  -3.308  0.00  0.00    +0.132 A 
ATOM     26  C   UNL     1       4.662   7.041  -2.831  0.00  0.00    +0.036 A 
ATOM     27  C   UNL     1       4.679   7.270  -1.458  0.00  0.00    +0.021 A 
BRANCH  25  28
ATOM     28  N   UNL     1       2.948   6.168  -4.398  0.00  0.00    -0.288 N 
ATOM     29  C   UNL     1       2.793   7.265  -5.297  0.00  0.00    +0.122 C 
ATOM     30  C   UNL     1       3.320   6.761  -6.776  0.00  0.00    +0.135 C 
ATOM     31  C   UNL     1       2.299   7.774  -7.586  0.00  0.00    +0.034 C 
ATOM     32  O   UNL     1       2.300   5.641  -6.841  0.00  0.00    -0.355 OA
ATOM     33  C   UNL     1       3.037   4.567  -6.068  0.00  0.00    +0.135 C 
ATOM     34  C   UNL     1       1.925   3.429  -6.497  0.00  0.00    +0.034 C 
ATOM     35  C   UNL     1       2.191   4.949  -4.704  0.00  0.00    +0.122 C 
ENDBRANCH  25  28
ENDBRANCH  20  22
ENDBRANCH   7  19
TORSDOF 6
ENDMDL
MODEL 3
REMARK VINA RESULT:      -9.7      3.110      8.359
REMARK  Name = 
REMARK  6 active torsions:
REMARK  status: ('A' for Active; 'I' for Inactive)
REMARK    1  A    between atoms: C_3  and  C_4
REMARK    2  A    between atoms: N_6  and  C_7
REMARK    3  A    between atoms: C_10  and  N_11
REMARK    4  A    between atoms: C_24  and  C_25
REMARK    5  A    between atoms: C_28  and  O_29
REMARK    6  A    between atoms: O_29  and  C_30
REMARK                            x       y       z     vdW  Elec       q    Type
REMARK                         _______ _______ _______ _____ _____    ______ ____
ROOT
ATOM      1  C   UNL     1       3.804   4.169  -9.106  0.00  0.00    +0.031 C 
ATOM      2  C   UNL     1       2.646   4.974  -9.013  0.00  0.00    -0.017 A 
ATOM      3  C   UNL     1       2.239   5.769 -10.054  0.00  0.00    -0.004 A 
ATOM      4  C   UNL     1       0.909   6.113 -10.211  0.00  0.00    -0.000 A 
ATOM      5  C   UNL     1       0.125   6.054  -9.093  0.00  0.00    +0.000 A 
ATOM      6  C   UNL     1       0.602   5.440  -7.951  0.00  0.00    +0.004 A 
ATOM      7  C   UNL     1       1.933   5.060  -7.825  0.00  0.00    +0.051 A 
ENDROOT
BRANCH   3   8
ATOM      8  C   UNL     1       3.285   6.230 -10.977  0.00  0.00    -0.000 A 
ATOM      9  C   UNL     1       3.741   5.501 -12.050  0.00  0.00    +0.003 A 
ATOM     10  C   UNL     1       5.118   5.444 -12.240  0.00  0.00    +0.037 A 
ATOM     11  C   UNL     1       6.008   6.210 -11.498  0.00  0.00    +0.147 A 
ATOM     12  C   UNL     1       5.455   7.283 -10.817  0.00  0.00    +0.037 A 
ATOM     13  C   UNL     1       4.084   7.299 -10.591  0.00  0.00    +0.003 A 
BRANCH  11  14
ATOM     14  O   UNL     1       7.261   5.719 -11.103  0.00  0.00    -0.404 OA
BRANCH  14  15
ATOM     15  C   UNL     1       7.592   5.716  -9.734  0.00  0.00    +0.575 C 
ATOM     16  F   UNL     1       6.505   5.490  -8.913  0.00  0.00    -0.133 F 
ATOM     17  F   UNL     1       8.509   4.711  -9.455  0.00  0.00    -0.133 F 
ATOM     18  F   UNL     1       8.119   6.969  -9.438  0.00  0.00    -0.133 F 
ENDBRANCH  14  15
ENDBRANCH  11  14
ENDBRANCH   3   8
BRANCH   7  19
ATOM     19  C   UNL     1       2.555   4.641  -6.590  0.00  0.00    +0.269 C 
ATOM     20  N   UNL     1       3.800   5.159  -6.100  0.00  0.00    -0.174 NA
ATOM     21  O   UNL     1       1.940   3.949  -5.721  0.00  0.00    -0.268 OA
BRANCH  20  22
ATOM     22  C   UNL     1       3.854   5.831  -4.825  0.00  0.00    +0.093 A 
ATOM     23  C   UNL     1       2.984   6.913  -4.703  0.00  0.00    +0.117 A 
ATOM     24  N   UNL     1       2.173   7.056  -3.623  0.00  0.00    -0.228 NA
ATOM     25  C   UNL     1       2.064   6.082  -2.683  0.00  0.00    +0.132 A 
ATOM     26  C   UNL     1       3.242   5.373  -2.509  0.00  0.00    +0.036 A 
ATOM     27  C   UNL     1       4.020   5.127  -3.637  0.00  0.00    +0.021 A 
BRANCH  25  28
ATOM     28  N   UNL     1       0.813   5.736  -2.155  0.00  0.00    -0.288 N 
ATOM     29  C   UNL     1       0.315   5.953  -0.836  0.00  0.00    +0.122 C 
ATOM     30  C   UNL     1      -0.910   7.051  -0.952  0.00  0.00    +0.135 C 
ATOM     31  C   UNL     1      -1.701   6.444   0.363  0.00  0.00    +0.034 C 
ATOM     32  O   UNL     1      -1.718   6.163  -1.878  0.00  0.00    -0.355 OA
ATOM     33  C   UNL     1      -1.090   6.529  -3.207  0.00  0.00    +0.135 C 
ATOM     34  C   UNL     1      -2.255   5.709  -4.036  0.00  0.00    +0.034 C 
ATOM     35  C   UNL     1      -0.130   5.190  -3.138  0.00  0.00    +0.122 C 
ENDBRANCH  25  28
ENDBRANCH  20  22
ENDBRANCH   7  19
TORSDOF 6
ENDMDL
MODEL 4
REMARK VINA RESULT:      -9.7      3.870      9.070
REMARK  Name = 
REMARK  6 active torsions:
REMARK  status: ('A' for Active; 'I' for Inactive)
REMARK    1  A    between atoms: C_3  and  C_4
REMARK    2  A    between atoms: N_6  and  C_7
REMARK    3  A    between atoms: C_10  and  N_11
REMARK    4  A    between atoms: C_24  and  C_25
REMARK    5  A    between atoms: C_28  and  O_29
REMARK    6  A    between atoms: O_29  and  C_30
REMARK                            x       y       z     vdW  Elec       q    Type
REMARK                         _______ _______ _______ _____ _____    ______ ____
ROOT
ATOM      1  C   UNL     1       3.627   5.497  -8.226  0.00  0.00    +0.031 C 
ATOM      2  C   UNL     1       2.863   5.945  -9.328  0.00  0.00    -0.017 A 
ATOM      3  C   UNL     1       3.428   6.138 -10.563  0.00  0.00    -0.004 A 
ATOM      4  C   UNL     1       2.673   6.037 -11.717  0.00  0.00    -0.000 A 
ATOM      5  C   UNL     1       1.325   6.217 -11.583  0.00  0.00    +0.000 A 
ATOM      6  C   UNL     1       0.756   6.241 -10.325  0.00  0.00    +0.004 A 
ATOM      7  C   UNL     1       1.530   6.299  -9.172  0.00  0.00    +0.051 A 
ENDROOT
BRANCH   3   8
ATOM      8  C   UNL     1       4.862   6.458 -10.587  0.00  0.00    -0.000 A 
ATOM      9  C   UNL     1       5.368   7.707 -10.862  0.00  0.00    +0.003 A 
ATOM     10  C   UNL     1       6.446   7.777 -11.739  0.00  0.00    +0.037 A 
ATOM     11  C   UNL     1       7.108   6.648 -12.203  0.00  0.00    +0.147 A 
ATOM     12  C   UNL     1       6.883   5.483 -11.487  0.00  0.00    +0.037 A 
ATOM     13  C   UNL     1       5.774   5.410 -10.654  0.00  0.00    +0.003 A 
BRANCH  11  14
ATOM     14  O   UNL     1       7.606   6.564 -13.511  0.00  0.00    -0.404 OA
BRANCH  14  15
ATOM     15  C   UNL     1       6.697   6.557 -14.588  0.00  0.00    +0.575 C 
ATOM     16  F   UNL     1       7.164   5.863 -15.687  0.00  0.00    -0.133 F 
ATOM     17  F   UNL     1       5.505   5.947 -14.219  0.00  0.00    -0.133 F 
ATOM     18  F   UNL     1       6.488   7.882 -14.956  0.00  0.00    -0.133 F 
ENDBRANCH  14  15
ENDBRANCH  11  14
ENDBRANCH   3   8
BRANCH   7  19
ATOM     19  C   UNL     1       1.016   6.569  -7.850  0.00  0.00    +0.269 C 
ATOM     20  N   UNL     1      -0.099   5.881  -7.263  0.00  0.00    -0.174 NA
ATOM     21  O   UNL     1       1.648   7.276  -7.007  0.00  0.00    -0.268 OA
BRANCH  20  22
ATOM     22  C   UNL     1       0.072   5.133  -6.041  0.00  0.00    +0.093 A 
ATOM     23  C   UNL     1       1.349   4.606  -5.859  0.00  0.00    +0.117 A 
ATOM     24  N   UNL     1       2.022   4.760  -4.688  0.00  0.00    -0.228 NA
ATOM     25  C   UNL     1       1.545   5.555  -3.695  0.00  0.00    +0.132 A 
ATOM     26  C   UNL     1       0.161   5.577  -3.645  0.00  0.00    +0.036 A 
ATOM     27  C   UNL     1      -0.530   5.534  -4.853  0.00  0.00    +0.021 A 
BRANCH  25  28
ATOM     28  N   UNL     1       2.406   6.407  -2.989  0.00  0.00    -0.288 N 
ATOM     29  C   UNL     1       2.608   6.496  -1.580  0.00  0.00    +0.122 C 
ATOM     30  C   UNL     1       4.143   5.974  -1.274  0.00  0.00    +0.135 C 
ATOM     31  C   UNL     1       4.299   6.933   0.060  0.00  0.00    +0.034 C 
ATOM     32  O   UNL     1       4.761   7.048  -2.148  0.00  0.00    -0.355 OA
ATOM     33  C   UNL     1       4.663   6.374  -3.501  0.00  0.00    +0.135 C 
ATOM     34  C   UNL     1       5.602   7.535  -4.199  0.00  0.00    +0.034 C 
ATOM     35  C   UNL     1       3.286   7.219  -3.837  0.00  0.00    +0.122 C 
ENDBRANCH  25  28
ENDBRANCH  20  22
ENDBRANCH   7  19
TORSDOF 6
ENDMDL
MODEL 5
REMARK VINA RESULT:      -9.6      2.954      7.284
REMARK  Name = 
REMARK  6 active torsions:
REMARK  status: ('A' for Active; 'I' for Inactive)
REMARK    1  A    between atoms: C_3  and  C_4
REMARK    2  A    between atoms: N_6  and  C_7
REMARK    3  A    between atoms: C_10  and  N_11
REMARK    4  A    between atoms: C_24  and  C_25
REMARK    5  A    between atoms: C_28  and  O_29
REMARK    6  A    between atoms: O_29  and  C_30
REMARK                            x       y       z     vdW  Elec       q    Type
REMARK                         _______ _______ _______ _____ _____    ______ ____
ROOT
ATOM      1  C   UNL     1       2.170   6.518  -6.803  0.00  0.00    +0.031 C 
ATOM      2  C   UNL     1       3.203   5.972  -7.598  0.00  0.00    -0.017 A 
ATOM      3  C   UNL     1       3.103   5.912  -8.964  0.00  0.00    -0.004 A 
ATOM      4  C   UNL     1       4.232   5.908  -9.763  0.00  0.00    -0.000 A 
ATOM      5  C   UNL     1       5.394   5.492  -9.178  0.00  0.00    +0.000 A 
ATOM      6  C   UNL     1       5.456   5.337  -7.807  0.00  0.00    +0.004 A 
ATOM      7  C   UNL     1       4.317   5.386  -7.012  0.00  0.00    +0.051 A 
ENDROOT
BRANCH   3   8
ATOM      8  C   UNL     1       1.745   5.849  -9.522  0.00  0.00    -0.000 A 
ATOM      9  C   UNL     1       1.010   4.691  -9.631  0.00  0.00    +0.003 A 
ATOM     10  C   UNL     1       0.344   4.472 -10.832  0.00  0.00    +0.037 A 
ATOM     11  C   UNL     1       0.268   5.433 -11.832  0.00  0.00    +0.147 A 
ATOM     12  C   UNL     1       0.573   6.728 -11.445  0.00  0.00    +0.037 A 
ATOM     13  C   UNL     1       1.285   6.927 -10.268  0.00  0.00    +0.003 A 
BRANCH  11  14
ATOM     14  O   UNL     1       0.313   5.095 -13.192  0.00  0.00    -0.404 OA
BRANCH  14  15
ATOM     15  C   UNL     1       1.566   4.990 -13.828  0.00  0.00    +0.575 C 
ATOM     16  F   UNL     1       2.629   5.194 -12.970  0.00  0.00    -0.133 F 
ATOM     17  F   UNL     1       1.736   3.720 -14.366  0.00  0.00    -0.133 F 
ATOM     18  F   UNL     1       1.604   5.963 -14.821  0.00  0.00    -0.133 F 
ENDBRANCH  14  15
ENDBRANCH  11  14
ENDBRANCH   3   8
BRANCH   7  19
ATOM     19  C   UNL     1       4.268   4.996  -5.622  0.00  0.00    +0.269 C 
ATOM     20  N   UNL     1       4.991   5.658  -4.574  0.00  0.00    -0.174 NA
ATOM     21  O   UNL     1       3.402   4.182  -5.175  0.00  0.00    -0.268 OA
BRANCH  20  22
ATOM     22  C   UNL     1       4.281   6.266  -3.475  0.00  0.00    +0.093 A 
ATOM     23  C   UNL     1       3.402   7.282  -3.844  0.00  0.00    +0.117 A 
ATOM     24  N   UNL     1       2.123   7.316  -3.388  0.00  0.00    -0.228 NA
ATOM     25  C   UNL     1       1.597   6.290  -2.670  0.00  0.00    +0.132 A 
ATOM     26  C   UNL     1       2.540   5.650  -1.883  0.00  0.00    +0.036 A 
ATOM     27  C   UNL     1       3.826   5.513  -2.397  0.00  0.00    +0.021 A 
BRANCH  25  28
ATOM     28  N   UNL     1       0.295   5.838  -2.922  0.00  0.00    -0.288 N 
ATOM     29  C   UNL     1      -0.876   6.015  -2.126  0.00  0.00    +0.122 C 
ATOM     30  C   UNL     1      -1.894   7.002  -2.970  0.00  0.00    +0.135 C 
ATOM     31  C   UNL     1      -3.245   6.332  -2.298  0.00  0.00    +0.034 C 
ATOM     32  O   UNL     1      -1.971   6.043  -4.141  0.00  0.00    -0.355 OA
ATOM     33  C   UNL     1      -0.729   6.456  -4.903  0.00  0.00    +0.135 C 
ATOM     34  C   UNL     1      -1.160   5.534  -6.199  0.00  0.00    +0.034 C 
ATOM     35  C   UNL     1       0.114   5.207  -4.234  0.00  0.00    +0.122 C 
ENDBRANCH  25  28
ENDBRANCH  20  22
ENDBRANCH   7  19
TORSDOF 6
ENDMDL
MODEL 6
REMARK VINA RESULT:      -9.4      3.715      6.939
REMARK  Name = 
REMARK  6 active torsions:
REMARK  status: ('A' for Active; 'I' for Inactive)
REMARK    1  A    between atoms: C_3  and  C_4
REMARK    2  A    between atoms: N_6  and  C_7
REMARK    3  A    between atoms: C_10  and  N_11
REMARK    4  A    between atoms: C_24  and  C_25
REMARK    5  A    between atoms: C_28  and  O_29
REMARK    6  A    between atoms: O_29  and  C_30
REMARK                            x       y       z     vdW  Elec       q    Type
REMARK                         _______ _______ _______ _____ _____    ______ ____
ROOT
ATOM      1  C   UNL     1       2.513   6.494  -8.420  0.00  0.00    +0.031 C 
ATOM      2  C   UNL     1       1.476   6.035  -7.577  0.00  0.00    -0.017 A 
ATOM      3  C   UNL     1       1.562   6.137  -6.212  0.00  0.00    -0.004 A 
ATOM      4  C   UNL     1       0.425   6.217  -5.429  0.00  0.00    -0.000 A 
ATOM      5  C   UNL     1      -0.728   5.724  -5.973  0.00  0.00    +0.000 A 
ATOM      6  C   UNL     1      -0.774   5.409  -7.317  0.00  0.00    +0.004 A 
ATOM      7  C   UNL     1       0.373   5.374  -8.101  0.00  0.00    +0.051 A 
ENDROOT
BRANCH   3   8
ATOM      8  C   UNL     1       2.914   6.152  -5.638  0.00  0.00    -0.000 A 
ATOM      9  C   UNL     1       3.730   5.048  -5.559  0.00  0.00    +0.003 A 
ATOM     10  C   UNL     1       4.397   4.834  -4.357  0.00  0.00    +0.037 A 
ATOM     11  C   UNL     1       4.391   5.761  -3.323  0.00  0.00    +0.147 A 
ATOM     12  C   UNL     1       3.996   7.044  -3.669  0.00  0.00    +0.037 A 
ATOM     13  C   UNL     1       3.286   7.233  -4.847  0.00  0.00    +0.003 A 
BRANCH  11  14
ATOM     14  O   UNL     1       4.354   5.372  -1.977  0.00  0.00    -0.404 OA
BRANCH  14  15
ATOM     15  C   UNL     1       3.110   5.083  -1.382  0.00  0.00    +0.575 C 
ATOM     16  F   UNL     1       2.064   5.089  -2.284  0.00  0.00    -0.133 F 
ATOM     17  F   UNL     1       3.124   3.819  -0.807  0.00  0.00    -0.133 F 
ATOM     18  F   UNL     1       2.875   6.066  -0.426  0.00  0.00    -0.133 F 
ENDBRANCH  14  15
ENDBRANCH  11  14
ENDBRANCH   3   8
BRANCH   7  19
ATOM     19  C   UNL     1       0.440   4.824  -9.435  0.00  0.00    +0.269 C 
ATOM     20  N   UNL     1      -0.369   5.273 -10.532  0.00  0.00    -0.174 NA
ATOM     21  O   UNL     1       1.381   4.058  -9.806  0.00  0.00    -0.268 OA
BRANCH  20  22
ATOM     22  C   UNL     1       0.252   5.813 -11.717  0.00  0.00    +0.093 A 
ATOM     23  C   UNL     1       1.115   6.881 -11.483  0.00  0.00    +0.117 A 
ATOM     24  N   UNL     1       2.363   6.919 -12.020  0.00  0.00    -0.228 NA
ATOM     25  C   UNL     1       2.880   5.855 -12.688  0.00  0.00    +0.132 A 
ATOM     26  C   UNL     1       1.915   5.127 -13.363  0.00  0.00    +0.036 A 
ATOM     27  C   UNL     1       0.668   4.991 -12.760  0.00  0.00    +0.021 A 
BRANCH  25  28
ATOM     28  N   UNL     1       4.211   5.465 -12.484  0.00  0.00    -0.288 N 
ATOM     29  C   UNL     1       5.295   5.488 -13.411  0.00  0.00    +0.122 C 
ATOM     30  C   UNL     1       6.367   6.622 -12.878  0.00  0.00    +0.135 C 
ATOM     31  C   UNL     1       7.662   5.840 -13.538  0.00  0.00    +0.034 C 
ATOM     32  O   UNL     1       6.579   5.909 -11.557  0.00  0.00    -0.355 OA
ATOM     33  C   UNL     1       5.407   6.458 -10.770  0.00  0.00    +0.135 C 
ATOM     34  C   UNL     1       5.981   5.806  -9.370  0.00  0.00    +0.034 C 
ATOM     35  C   UNL     1       4.531   5.100 -11.099  0.00  0.00    +0.122 C 
ENDBRANCH  25  28
ENDBRANCH  20  22
ENDBRANCH   7  19
TORSDOF 6
ENDMDL
MODEL 7
REMARK VINA RESULT:      -9.1      2.916      7.307
REMARK  Name = 
REMARK  6 active torsions:
REMARK  status: ('A' for Active; 'I' for Inactive)
REMARK    1  A    between atoms: C_3  and  C_4
REMARK    2  A    between atoms: N_6  and  C_7
REMARK    3  A    between atoms: C_10  and  N_11
REMARK    4  A    between atoms: C_24  and  C_25
REMARK    5  A    between atoms: C_28  and  O_29
REMARK    6  A    between atoms: O_29  and  C_30
REMARK                            x       y       z     vdW  Elec       q    Type
REMARK                         _______ _______ _______ _____ _____    ______ ____
ROOT
ATOM      1  C   UNL     1       0.682   5.370  -3.998  0.00  0.00    +0.031 C 
ATOM      2  C   UNL     1      -0.375   5.594  -4.908  0.00  0.00    -0.017 A 
ATOM      3  C   UNL     1      -0.209   5.422  -6.258  0.00  0.00    -0.004 A 
ATOM      4  C   UNL     1      -1.279   5.103  -7.074  0.00  0.00    -0.000 A 
ATOM      5  C   UNL     1      -2.521   5.431  -6.609  0.00  0.00    +0.000 A 
ATOM      6  C   UNL     1      -2.682   5.819  -5.293  0.00  0.00    +0.004 A 
ATOM      7  C   UNL     1      -1.595   6.094  -4.472  0.00  0.00    +0.051 A 
ENDROOT
BRANCH   3   8
ATOM      8  C   UNL     1       1.153   5.596  -6.781  0.00  0.00    -0.000 A 
ATOM      9  C   UNL     1       2.148   4.653  -6.668  0.00  0.00    +0.003 A 
ATOM     10  C   UNL     1       3.407   5.100  -6.279  0.00  0.00    +0.037 A 
ATOM     11  C   UNL     1       3.719   6.449  -6.164  0.00  0.00    +0.147 A 
ATOM     12  C   UNL     1       2.844   7.323  -6.790  0.00  0.00    +0.037 A 
ATOM     13  C   UNL     1       1.573   6.876  -7.125  0.00  0.00    +0.003 A 
BRANCH  11  14
ATOM     14  O   UNL     1       4.570   6.931  -5.160  0.00  0.00    -0.404 OA
BRANCH  14  15
ATOM     15  C   UNL     1       4.080   7.041  -3.844  0.00  0.00    +0.575 C 
ATOM     16  F   UNL     1       2.839   7.643  -3.776  0.00  0.00    -0.133 F 
ATOM     17  F   UNL     1       3.937   5.785  -3.269  0.00  0.00    -0.133 F 
ATOM     18  F   UNL     1       4.989   7.817  -3.132  0.00  0.00    -0.133 F 
ENDBRANCH  14  15
ENDBRANCH  11  14
ENDBRANCH   3   8
BRANCH   7  19
ATOM     19  C   UNL     1      -1.681   6.732  -3.179  0.00  0.00    +0.269 C 
ATOM     20  N   UNL     1      -2.345   6.160  -2.043  0.00  0.00    -0.174 NA
ATOM     21  O   UNL     1      -0.980   7.745  -2.873  0.00  0.00    -0.268 OA
BRANCH  20  22
ATOM     22  C   UNL     1      -1.608   5.886  -0.834  0.00  0.00    +0.093 A 
ATOM     23  C   UNL     1      -0.328   5.374  -1.039  0.00  0.00    +0.117 A 
ATOM     24  N   UNL     1       0.755   5.889  -0.400  0.00  0.00    -0.228 NA
ATOM     25  C   UNL     1       0.665   7.015   0.354  0.00  0.00    +0.132 A 
ATOM     26  C   UNL     1      -0.566   7.146   0.975  0.00  0.00    +0.036 A 
ATOM     27  C   UNL     1      -1.692   6.723   0.275  0.00  0.00    +0.021 A 
BRANCH  25  28
ATOM     28  N   UNL     1       1.657   8.002   0.281  0.00  0.00    -0.288 N 
ATOM     29  C   UNL     1       1.646   9.316   0.838  0.00  0.00    +0.122 C 
ATOM     30  C   UNL     1       2.796   9.353   2.020  0.00  0.00    +0.135 C 
ATOM     31  C   UNL     1       3.086  10.965   1.812  0.00  0.00    +0.034 C 
ATOM     32  O   UNL     1       3.909   9.003   1.051  0.00  0.00    -0.355 OA
ATOM     33  C   UNL     1       3.784   7.494   1.040  0.00  0.00    +0.135 C 
ATOM     34  C   UNL     1       5.193   7.336   0.200  0.00  0.00    +0.034 C 
ATOM     35  C   UNL     1       2.905   7.563  -0.354  0.00  0.00    +0.122 C 
ENDBRANCH  25  28
ENDBRANCH  20  22
ENDBRANCH   7  19
TORSDOF 6
ENDMDL
MODEL 8
REMARK VINA RESULT:      -9.0      3.250      7.473
REMARK  Name = 
REMARK  6 active torsions:
REMARK  status: ('A' for Active; 'I' for Inactive)
REMARK    1  A    between atoms: C_3  and  C_4
REMARK    2  A    between atoms: N_6  and  C_7
REMARK    3  A    between atoms: C_10  and  N_11
REMARK    4  A    between atoms: C_24  and  C_25
REMARK    5  A    between atoms: C_28  and  O_29
REMARK    6  A    between atoms: O_29  and  C_30
REMARK                            x       y       z     vdW  Elec       q    Type
REMARK                         _______ _______ _______ _____ _____    ______ ____
ROOT
ATOM      1  C   UNL     1       0.631   6.250  -3.635  0.00  0.00    +0.031 C 
ATOM      2  C   UNL     1      -0.315   6.223  -4.685  0.00  0.00    -0.017 A 
ATOM      3  C   UNL     1       0.063   6.023  -5.987  0.00  0.00    -0.004 A 
ATOM      4  C   UNL     1      -0.808   5.466  -6.906  0.00  0.00    -0.000 A 
ATOM      5  C   UNL     1      -2.142   5.568  -6.624  0.00  0.00    +0.000 A 
ATOM      6  C   UNL     1      -2.550   5.979  -5.370  0.00  0.00    +0.004 A 
ATOM      7  C   UNL     1      -1.655   6.497  -4.442  0.00  0.00    +0.051 A 
ENDROOT
BRANCH   3   8
ATOM      8  C   UNL     1       1.427   6.432  -6.347  0.00  0.00    -0.000 A 
ATOM      9  C   UNL     1       1.725   7.543  -7.101  0.00  0.00    +0.003 A 
ATOM     10  C   UNL     1       2.668   7.391  -8.112  0.00  0.00    +0.037 A 
ATOM     11  C   UNL     1       3.414   6.230  -8.271  0.00  0.00    +0.147 A 
ATOM     12  C   UNL     1       3.436   5.376  -7.179  0.00  0.00    +0.037 A 
ATOM     13  C   UNL     1       2.455   5.508  -6.204  0.00  0.00    +0.003 A 
BRANCH  11  14
ATOM     14  O   UNL     1       3.756   5.734  -9.537  0.00  0.00    -0.404 OA
BRANCH  14  15
ATOM     15  C   UNL     1       5.005   6.079 -10.091  0.00  0.00    +0.575 C 
ATOM     16  F   UNL     1       5.106   7.419 -10.409  0.00  0.00    -0.133 F 
ATOM     17  F   UNL     1       6.029   5.812  -9.192  0.00  0.00    -0.133 F 
ATOM     18  F   UNL     1       5.155   5.334 -11.257  0.00  0.00    -0.133 F 
ENDBRANCH  14  15
ENDBRANCH  11  14
ENDBRANCH   3   8
BRANCH   7  19
ATOM     19  C   UNL     1      -2.034   7.166  -3.219  0.00  0.00    +0.269 C 
ATOM     20  N   UNL     1      -2.719   6.527  -2.132  0.00  0.00    -0.174 NA
ATOM     21  O   UNL     1      -1.590   8.313  -2.906  0.00  0.00    -0.268 OA
BRANCH  20  22
ATOM     22  C   UNL     1      -2.110   6.466  -0.826  0.00  0.00    +0.093 A 
ATOM     23  C   UNL     1      -0.937   5.716  -0.768  0.00  0.00    +0.117 A 
ATOM     24  N   UNL     1       0.187   6.196  -0.175  0.00  0.00    -0.228 NA
ATOM     25  C   UNL     1       0.266   7.481   0.259  0.00  0.00    +0.132 A 
ATOM     26  C   UNL     1      -0.951   7.972   0.702  0.00  0.00    +0.036 A 
ATOM     27  C   UNL     1      -2.097   7.569   0.023  0.00  0.00    +0.021 A 
BRANCH  25  28
ATOM     28  N   UNL     1       1.425   8.237   0.039  0.00  0.00    -0.288 N 
ATOM     29  C   UNL     1       1.721   9.560   0.484  0.00  0.00    +0.122 C 
ATOM     30  C   UNL     1       2.948   9.443   1.580  0.00  0.00    +0.135 C 
ATOM     31  C   UNL     1       3.534  10.943   1.220  0.00  0.00    +0.034 C 
ATOM     32  O   UNL     1       3.886   8.808   0.573  0.00  0.00    -0.355 OA
ATOM     33  C   UNL     1       3.463   7.358   0.697  0.00  0.00    +0.135 C 
ATOM     34  C   UNL     1       4.740   6.859  -0.217  0.00  0.00    +0.034 C 
ATOM     35  C   UNL     1       2.505   7.510  -0.637  0.00  0.00    +0.122 C 
ENDBRANCH  25  28
ENDBRANCH  20  22
ENDBRANCH   7  19
TORSDOF 6
ENDMDL
MODEL 9
REMARK VINA RESULT:      -8.9      3.952      6.201
REMARK  Name = 
REMARK  6 active torsions:
REMARK  status: ('A' for Active; 'I' for Inactive)
REMARK    1  A    between atoms: C_3  and  C_4
REMARK    2  A    between atoms: N_6  and  C_7
REMARK    3  A    between atoms: C_10  and  N_11
REMARK    4  A    between atoms: C_24  and  C_25
REMARK    5  A    between atoms: C_28  and  O_29
REMARK    6  A    between atoms: O_29  and  C_30
REMARK                            x       y       z     vdW  Elec       q    Type
REMARK                         _______ _______ _______ _____ _____    ______ ____
ROOT
ATOM      1  C   UNL     1       3.027   4.655  -2.581  0.00  0.00    +0.031 C 
ATOM      2  C   UNL     1       3.678   5.793  -3.108  0.00  0.00    -0.017 A 
ATOM      3  C   UNL     1       4.364   6.665  -2.302  0.00  0.00    -0.004 A 
ATOM      4  C   UNL     1       5.411   7.421  -2.797  0.00  0.00    -0.000 A 
ATOM      5  C   UNL     1       5.429   7.632  -4.146  0.00  0.00    +0.000 A 
ATOM      6  C   UNL     1       4.584   6.909  -4.966  0.00  0.00    +0.004 A 
ATOM      7  C   UNL     1       3.562   6.120  -4.452  0.00  0.00    +0.051 A 
ENDROOT
BRANCH   3   8
ATOM      8  C   UNL     1       3.925   6.751  -0.902  0.00  0.00    -0.000 A 
ATOM      9  C   UNL     1       2.638   7.040  -0.515  0.00  0.00    +0.003 A 
ATOM     10  C   UNL     1       2.474   7.964   0.512  0.00  0.00    +0.037 A 
ATOM     11  C   UNL     1       3.543   8.465   1.244  0.00  0.00    +0.147 A 
ATOM     12  C   UNL     1       4.724   7.747   1.150  0.00  0.00    +0.037 A 
ATOM     13  C   UNL     1       4.893   6.867   0.089  0.00  0.00    +0.003 A 
BRANCH  11  14
ATOM     14  O   UNL     1       3.581   9.795   1.688  0.00  0.00    -0.404 OA
BRANCH  14  15
ATOM     15  C   UNL     1       3.384  10.831   0.754  0.00  0.00    +0.575 C 
ATOM     16  F   UNL     1       4.028  10.609  -0.447  0.00  0.00    -0.133 F 
ATOM     17  F   UNL     1       2.035  10.971   0.454  0.00  0.00    -0.133 F 
ATOM     18  F   UNL     1       3.893  11.995   1.321  0.00  0.00    -0.133 F 
ENDBRANCH  14  15
ENDBRANCH  11  14
ENDBRANCH   3   8
BRANCH   7  19
ATOM     19  C   UNL     1       2.500   5.536  -5.237  0.00  0.00    +0.269 C 
ATOM     20  N   UNL     1       1.213   6.143  -5.427  0.00  0.00    -0.174 NA
ATOM     21  O   UNL     1       2.692   4.551  -6.014  0.00  0.00    -0.268 OA
BRANCH  20  22
ATOM     22  C   UNL     1       0.760   6.481  -6.754  0.00  0.00    +0.093 A 
ATOM     23  C   UNL     1       1.546   7.426  -7.411  0.00  0.00    +0.117 A 
ATOM     24  N   UNL     1       1.975   7.233  -8.685  0.00  0.00    -0.228 NA
ATOM     25  C   UNL     1       1.784   6.051  -9.327  0.00  0.00    +0.132 A 
ATOM     26  C   UNL     1       0.614   5.418  -8.943  0.00  0.00    +0.036 A 
ATOM     27  C   UNL     1       0.230   5.521  -7.609  0.00  0.00    +0.021 A 
BRANCH  25  28
ATOM     28  N   UNL     1       2.807   5.487 -10.101  0.00  0.00    -0.288 N 
ATOM     29  C   UNL     1       2.916   5.429 -11.523  0.00  0.00    +0.122 C 
ATOM     30  C   UNL     1       4.188   6.388 -11.953  0.00  0.00    +0.135 C 
ATOM     31  C   UNL     1       4.527   5.491 -13.295  0.00  0.00    +0.034 C 
ATOM     32  O   UNL     1       5.172   5.577 -11.133  0.00  0.00    -0.355 OA
ATOM     33  C   UNL     1       4.978   6.221  -9.775  0.00  0.00    +0.135 C 
ATOM     34  C   UNL     1       6.279   5.421  -9.157  0.00  0.00    +0.034 C 
ATOM     35  C   UNL     1       3.958   5.004  -9.329  0.00  0.00    +0.122 C 
ENDBRANCH  25  28
ENDBRANCH  20  22
ENDBRANCH   7  19
TORSDOF 6
ENDMDL
