MODEL 1
REMARK VINA RESULT:      -6.5      0.000      0.000
REMARK  Name = 
REMARK  5 active torsions:
REMARK  status: ('A' for Active; 'I' for Inactive)
REMARK    1  A    between atoms: C_2  and  N_3
REMARK    2  A    between atoms: N_3  and  C_4
REMARK    3  A    between atoms: C_6  and  C_8
REMARK    4  A    between atoms: C_8  and  C_9
REMARK    5  A    between atoms: C_16  and  C_17
REMARK                            x       y       z     vdW  Elec       q    Type
REMARK                         _______ _______ _______ _____ _____    ______ ____
ROOT
ATOM      1  C   UNL     1       1.625   5.573  -5.587  0.00  0.00    +0.089 C 
ATOM      2  C   UNL     1       2.175   5.330  -4.036  0.00  0.00    +0.032 C 
ATOM      3  C   UNL     1       2.346   6.807  -4.778  0.00  0.00    +0.015 C 
ENDROOT
BRANCH   1   4
ATOM      4  C   UNL     1       0.209   5.986  -5.631  0.00  0.00    -0.015 A 
ATOM      5  C   UNL     1      -0.665   5.303  -6.429  0.00  0.00    -0.004 A 
ATOM      6  C   UNL     1      -2.005   5.607  -6.450  0.00  0.00    -0.000 A 
ATOM      7  C   UNL     1      -2.503   6.428  -5.453  0.00  0.00    -0.000 A 
ATOM      8  C   UNL     1      -1.621   7.366  -4.949  0.00  0.00    -0.000 A 
ATOM      9  C   UNL     1      -0.249   7.190  -5.099  0.00  0.00    -0.004 A 
ENDBRANCH   1   4
BRANCH   1  11
ATOM     10  N   UNL     1       2.581   5.178  -7.904  0.00  0.00    -0.279 N 
ATOM     11  C   UNL     1       2.284   4.790  -6.547  0.00  0.00    +0.229 C 
ATOM     12  O   UNL     1       1.971   3.550  -6.492  0.00  0.00    -0.275 OA
BRANCH  10  14
ATOM     13  C   UNL     1       1.114   4.826  -9.775  0.00  0.00    +0.023 C 
ATOM     14  C   UNL     1       2.296   4.270  -9.020  0.00  0.00    +0.093 C 
ENDBRANCH  10  14
BRANCH  10  15
ATOM     15  C   UNL     1       3.773   5.949  -7.977  0.00  0.00    +0.093 C 
ATOM     16  C   UNL     1       5.072   5.285  -8.038  0.00  0.00    +0.023 C 
ENDBRANCH  10  15
ENDBRANCH   1  11
BRANCH   2  17
ATOM     17  C   UNL     1       3.744   4.875  -4.441  0.00  0.00    +0.110 C 
ATOM     18  N   UNL     1       4.495   4.994  -3.232  0.00  0.00    -0.131 NA
ENDBRANCH   2  17
TORSDOF 5
ENDMDL
MODEL 2
REMARK VINA RESULT:      -6.3      1.595      3.859
REMARK  Name = 
REMARK  5 active torsions:
REMARK  status: ('A' for Active; 'I' for Inactive)
REMARK    1  A    between atoms: C_2  and  N_3
REMARK    2  A    between atoms: N_3  and  C_4
REMARK    3  A    between atoms: C_6  and  C_8
REMARK    4  A    between atoms: C_8  and  C_9
REMARK    5  A    between atoms: C_16  and  C_17
REMARK                            x       y       z     vdW  Elec       q    Type
REMARK                         _______ _______ _______ _____ _____    ______ ____
ROOT
ATOM      1  C   UNL     1       1.271   5.741  -6.065  0.00  0.00    +0.089 C 
ATOM      2  C   UNL     1       1.395   5.134  -7.608  0.00  0.00    +0.032 C 
ATOM      3  C   UNL     1       1.074   4.132  -6.323  0.00  0.00    +0.015 C 
ENDROOT
BRANCH   1   4
ATOM      4  C   UNL     1      -0.094   6.197  -5.740  0.00  0.00    -0.015 A 
ATOM      5  C   UNL     1      -0.266   7.244  -4.880  0.00  0.00    -0.004 A 
ATOM      6  C   UNL     1      -1.514   7.747  -4.601  0.00  0.00    -0.000 A 
ATOM      7  C   UNL     1      -2.569   7.359  -5.410  0.00  0.00    -0.000 A 
ATOM      8  C   UNL     1      -2.474   6.093  -5.957  0.00  0.00    -0.000 A 
ATOM      9  C   UNL     1      -1.237   5.465  -6.061  0.00  0.00    -0.004 A 
ENDBRANCH   1   4
BRANCH   1  11
ATOM     10  N   UNL     1       2.928   6.280  -4.220  0.00  0.00    -0.279 N 
ATOM     11  C   UNL     1       2.462   6.306  -5.585  0.00  0.00    +0.229 C 
ATOM     12  O   UNL     1       2.754   7.423  -6.137  0.00  0.00    -0.275 OA
BRANCH  10  14
ATOM     13  C   UNL     1       3.287   7.326  -2.086  0.00  0.00    +0.023 C 
ATOM     14  C   UNL     1       3.430   7.499  -3.578  0.00  0.00    +0.093 C 
ENDBRANCH  10  14
BRANCH  10  15
ATOM     15  C   UNL     1       3.596   5.061  -3.920  0.00  0.00    +0.093 C 
ATOM     16  C   UNL     1       4.971   4.851  -4.364  0.00  0.00    +0.023 C 
ENDBRANCH  10  15
ENDBRANCH   1  11
BRANCH   2  17
ATOM     17  C   UNL     1       3.039   4.774  -7.559  0.00  0.00    +0.110 C 
ATOM     18  N   UNL     1       3.295   4.018  -8.743  0.00  0.00    -0.131 NA
ENDBRANCH   2  17
TORSDOF 5
ENDMDL
MODEL 3
REMARK VINA RESULT:      -6.2      1.914      3.986
REMARK  Name = 
REMARK  5 active torsions:
REMARK  status: ('A' for Active; 'I' for Inactive)
REMARK    1  A    between atoms: C_2  and  N_3
REMARK    2  A    between atoms: N_3  and  C_4
REMARK    3  A    between atoms: C_6  and  C_8
REMARK    4  A    between atoms: C_8  and  C_9
REMARK    5  A    between atoms: C_16  and  C_17
REMARK                            x       y       z     vdW  Elec       q    Type
REMARK                         _______ _______ _______ _____ _____    ______ ____
ROOT
ATOM      1  C   UNL     1       1.165   6.215  -7.802  0.00  0.00    +0.089 C 
ATOM      2  C   UNL     1       0.749   6.420  -9.399  0.00  0.00    +0.032 C 
ATOM      3  C   UNL     1       0.934   4.899  -8.757  0.00  0.00    +0.015 C 
ENDROOT
BRANCH   1   4
ATOM      4  C   UNL     1      -0.008   6.187  -6.908  0.00  0.00    -0.015 A 
ATOM      5  C   UNL     1       0.018   6.903  -5.744  0.00  0.00    -0.004 A 
ATOM      6  C   UNL     1      -1.075   6.964  -4.913  0.00  0.00    -0.000 A 
ATOM      7  C   UNL     1      -2.291   6.516  -5.402  0.00  0.00    -0.000 A 
ATOM      8  C   UNL     1      -2.226   5.498  -6.336  0.00  0.00    -0.000 A 
ATOM      9  C   UNL     1      -1.053   5.275  -7.050  0.00  0.00    -0.004 A 
ENDBRANCH   1   4
BRANCH   1  11
ATOM     10  N   UNL     1       3.364   6.153  -6.537  0.00  0.00    -0.279 N 
ATOM     11  C   UNL     1       2.433   6.722  -7.481  0.00  0.00    +0.229 C 
ATOM     12  O   UNL     1       2.471   8.001  -7.435  0.00  0.00    -0.275 OA
BRANCH  10  14
ATOM     13  C   UNL     1       4.585   6.098  -4.467  0.00  0.00    +0.023 C 
ATOM     14  C   UNL     1       4.031   7.000  -5.542  0.00  0.00    +0.093 C 
ENDBRANCH  10  14
BRANCH  10  15
ATOM     15  C   UNL     1       4.129   5.109  -7.124  0.00  0.00    +0.093 C 
ATOM     16  C   UNL     1       5.162   5.421  -8.107  0.00  0.00    +0.023 C 
ENDBRANCH  10  15
ENDBRANCH   1  11
BRANCH   2  17
ATOM     17  C   UNL     1       2.312   6.414 -10.024  0.00  0.00    +0.110 C 
ATOM     18  N   UNL     1       2.184   5.921 -11.357  0.00  0.00    -0.131 NA
ENDBRANCH   2  17
TORSDOF 5
ENDMDL
MODEL 4
REMARK VINA RESULT:      -6.1      2.270      4.576
REMARK  Name = 
REMARK  5 active torsions:
REMARK  status: ('A' for Active; 'I' for Inactive)
REMARK    1  A    between atoms: C_2  and  N_3
REMARK    2  A    between atoms: N_3  and  C_4
REMARK    3  A    between atoms: C_6  and  C_8
REMARK    4  A    between atoms: C_8  and  C_9
REMARK    5  A    between atoms: C_16  and  C_17
REMARK                            x       y       z     vdW  Elec       q    Type
REMARK                         _______ _______ _______ _____ _____    ______ ____
ROOT
ATOM      1  C   UNL     1       1.891   5.698  -6.473  0.00  0.00    +0.089 C 
ATOM      2  C   UNL     1       0.446   5.689  -5.651  0.00  0.00    +0.032 C 
ATOM      3  C   UNL     1       1.259   4.273  -5.955  0.00  0.00    +0.015 C 
ENDROOT
BRANCH   1   4
ATOM      4  C   UNL     1       3.051   5.892  -5.582  0.00  0.00    -0.015 A 
ATOM      5  C   UNL     1       3.616   7.131  -5.475  0.00  0.00    -0.004 A 
ATOM      6  C   UNL     1       4.654   7.375  -4.607  0.00  0.00    -0.000 A 
ATOM      7  C   UNL     1       4.938   6.419  -3.647  0.00  0.00    -0.000 A 
ATOM      8  C   UNL     1       4.667   5.110  -4.001  0.00  0.00    -0.000 A 
ATOM      9  C   UNL     1       3.770   4.833  -5.028  0.00  0.00    -0.004 A 
ENDBRANCH   1   4
BRANCH   1  11
ATOM     10  N   UNL     1       2.443   5.589  -8.948  0.00  0.00    -0.279 N 
ATOM     11  C   UNL     1       1.784   6.155  -7.795  0.00  0.00    +0.229 C 
ATOM     12  O   UNL     1       1.731   7.430  -7.890  0.00  0.00    -0.275 OA
BRANCH  10  14
ATOM     13  C   UNL     1       4.618   6.268  -9.711  0.00  0.00    +0.023 C 
ATOM     14  C   UNL     1       3.133   6.451  -9.912  0.00  0.00    +0.093 C 
ENDBRANCH  10  14
BRANCH  10  15
ATOM     15  C   UNL     1       1.725   4.475  -9.464  0.00  0.00    +0.093 C 
ATOM     16  C   UNL     1       0.653   4.681 -10.434  0.00  0.00    +0.023 C 
ENDBRANCH  10  15
ENDBRANCH   1  11
BRANCH   2  17
ATOM     17  C   UNL     1      -0.554   5.476  -6.989  0.00  0.00    +0.110 C 
ATOM     18  N   UNL     1      -1.885   5.617  -6.492  0.00  0.00    -0.131 NA
ENDBRANCH   2  17
TORSDOF 5
ENDMDL
MODEL 5
REMARK VINA RESULT:      -6.1      1.896      2.543
REMARK  Name = 
REMARK  5 active torsions:
REMARK  status: ('A' for Active; 'I' for Inactive)
REMARK    1  A    between atoms: C_2  and  N_3
REMARK    2  A    between atoms: N_3  and  C_4
REMARK    3  A    between atoms: C_6  and  C_8
REMARK    4  A    between atoms: C_8  and  C_9
REMARK    5  A    between atoms: C_16  and  C_17
REMARK                            x       y       z     vdW  Elec       q    Type
REMARK                         _______ _______ _______ _____ _____    ______ ____
ROOT
ATOM      1  C   UNL     1       0.984   5.829  -4.119  0.00  0.00    +0.089 C 
ATOM      2  C   UNL     1       0.700   5.031  -2.688  0.00  0.00    +0.032 C 
ATOM      3  C   UNL     1       0.632   6.689  -2.765  0.00  0.00    +0.015 C 
ENDROOT
BRANCH   1   4
ATOM      4  C   UNL     1      -0.234   5.983  -4.937  0.00  0.00    -0.015 A 
ATOM      5  C   UNL     1      -0.373   5.246  -6.079  0.00  0.00    -0.004 A 
ATOM      6  C   UNL     1      -1.519   5.304  -6.836  0.00  0.00    -0.000 A 
ATOM      7  C   UNL     1      -2.636   5.908  -6.283  0.00  0.00    -0.000 A 
ATOM      8  C   UNL     1      -2.385   6.928  -5.384  0.00  0.00    -0.000 A 
ATOM      9  C   UNL     1      -1.148   7.019  -4.753  0.00  0.00    -0.004 A 
ENDBRANCH   1   4
BRANCH   1  11
ATOM     10  N   UNL     1       3.103   6.675  -5.231  0.00  0.00    -0.279 N 
ATOM     11  C   UNL     1       2.288   5.660  -4.609  0.00  0.00    +0.229 C 
ATOM     12  O   UNL     1       2.476   4.526  -5.171  0.00  0.00    -0.275 OA
BRANCH  10  14
ATOM     13  C   UNL     1       3.020   6.986  -7.613  0.00  0.00    +0.023 C 
ATOM     14  C   UNL     1       3.821   6.396  -6.479  0.00  0.00    +0.093 C 
ENDBRANCH  10  14
BRANCH  10  15
ATOM     15  C   UNL     1       3.764   7.479  -4.263  0.00  0.00    +0.093 C 
ATOM     16  C   UNL     1       5.221   7.476  -4.180  0.00  0.00    +0.023 C 
ENDBRANCH  10  15
ENDBRANCH   1  11
BRANCH   2  17
ATOM     17  C   UNL     1       2.283   5.059  -2.116  0.00  0.00    +0.110 C 
ATOM     18  N   UNL     1       2.197   4.658  -0.748  0.00  0.00    -0.131 NA
ENDBRANCH   2  17
TORSDOF 5
ENDMDL
MODEL 6
REMARK VINA RESULT:      -6.1      3.336      6.263
REMARK  Name = 
REMARK  5 active torsions:
REMARK  status: ('A' for Active; 'I' for Inactive)
REMARK    1  A    between atoms: C_2  and  N_3
REMARK    2  A    between atoms: N_3  and  C_4
REMARK    3  A    between atoms: C_6  and  C_8
REMARK    4  A    between atoms: C_8  and  C_9
REMARK    5  A    between atoms: C_16  and  C_17
REMARK                            x       y       z     vdW  Elec       q    Type
REMARK                         _______ _______ _______ _____ _____    ______ ____
ROOT
ATOM      1  C   UNL     1       3.609   5.766  -9.366  0.00  0.00    +0.089 C 
ATOM      2  C   UNL     1       3.688   5.356  -7.757  0.00  0.00    +0.032 C 
ATOM      3  C   UNL     1       3.947   4.217  -8.938  0.00  0.00    +0.015 C 
ENDROOT
BRANCH   1   4
ATOM      4  C   UNL     1       4.898   6.255  -9.893  0.00  0.00    -0.015 A 
ATOM      5  C   UNL     1       4.910   7.284 -10.791  0.00  0.00    -0.004 A 
ATOM      6  C   UNL     1       6.088   7.818 -11.256  0.00  0.00    -0.000 A 
ATOM      7  C   UNL     1       7.259   7.485 -10.598  0.00  0.00    -0.000 A 
ATOM      8  C   UNL     1       7.287   6.231 -10.015  0.00  0.00    -0.000 A 
ATOM      9  C   UNL     1       6.099   5.568  -9.723  0.00  0.00    -0.004 A 
ENDBRANCH   1   4
BRANCH   1  11
ATOM     10  N   UNL     1       1.741   5.970 -11.071  0.00  0.00    -0.279 N 
ATOM     11  C   UNL     1       2.338   6.194  -9.777  0.00  0.00    +0.229 C 
ATOM     12  O   UNL     1       2.023   7.352  -9.332  0.00  0.00    -0.275 OA
BRANCH  10  14
ATOM     13  C   UNL     1       1.182   6.766 -13.269  0.00  0.00    +0.023 C 
ATOM     14  C   UNL     1       1.089   7.068 -11.794  0.00  0.00    +0.093 C 
ENDBRANCH  10  14
BRANCH  10  15
ATOM     15  C   UNL     1       1.137   4.685 -11.151  0.00  0.00    +0.093 C 
ATOM     16  C   UNL     1      -0.176   4.455 -10.555  0.00  0.00    +0.023 C 
ENDBRANCH  10  15
ENDBRANCH   1  11
BRANCH   2  17
ATOM     17  C   UNL     1       2.078   4.898  -7.580  0.00  0.00    +0.110 C 
ATOM     18  N   UNL     1       2.090   3.835  -6.627  0.00  0.00    -0.131 NA
ENDBRANCH   2  17
TORSDOF 5
ENDMDL
MODEL 7
REMARK VINA RESULT:      -6.0      2.172      6.413
REMARK  Name = 
REMARK  5 active torsions:
REMARK  status: ('A' for Active; 'I' for Inactive)
REMARK    1  A    between atoms: C_2  and  N_3
REMARK    2  A    between atoms: N_3  and  C_4
REMARK    3  A    between atoms: C_6  and  C_8
REMARK    4  A    between atoms: C_8  and  C_9
REMARK    5  A    between atoms: C_16  and  C_17
REMARK                            x       y       z     vdW  Elec       q    Type
REMARK                         _______ _______ _______ _____ _____    ______ ____
ROOT
ATOM      1  C   UNL     1       2.975   5.601  -9.591  0.00  0.00    +0.089 C 
ATOM      2  C   UNL     1       2.184   5.230 -11.006  0.00  0.00    +0.032 C 
ATOM      3  C   UNL     1       2.120   6.765 -10.374  0.00  0.00    +0.015 C 
ENDROOT
BRANCH   1   4
ATOM      4  C   UNL     1       4.375   6.011  -9.813  0.00  0.00    -0.015 A 
ATOM      5  C   UNL     1       5.370   5.423  -9.084  0.00  0.00    -0.004 A 
ATOM      6  C   UNL     1       6.693   5.722  -9.303  0.00  0.00    -0.000 A 
ATOM      7  C   UNL     1       7.022   6.419 -10.453  0.00  0.00    -0.000 A 
ATOM      8  C   UNL     1       6.061   7.295 -10.922  0.00  0.00    -0.000 A 
ATOM      9  C   UNL     1       4.730   7.143 -10.545  0.00  0.00    -0.004 A 
ENDBRANCH   1   4
BRANCH   1  11
ATOM     10  N   UNL     1       2.337   5.434  -7.140  0.00  0.00    -0.279 N 
ATOM     11  C   UNL     1       2.489   4.905  -8.474  0.00  0.00    +0.229 C 
ATOM     12  O   UNL     1       2.867   3.684  -8.433  0.00  0.00    -0.275 OA
BRANCH  10  14
ATOM     13  C   UNL     1       4.104   5.304  -5.516  0.00  0.00    +0.023 C 
ATOM     14  C   UNL     1       2.812   4.677  -5.978  0.00  0.00    +0.093 C 
ENDBRANCH  10  14
BRANCH  10  15
ATOM     15  C   UNL     1       1.118   6.152  -7.000  0.00  0.00    +0.093 C 
ATOM     16  C   UNL     1      -0.139   5.432  -6.824  0.00  0.00    +0.023 C 
ENDBRANCH  10  15
ENDBRANCH   1  11
BRANCH   2  17
ATOM     17  C   UNL     1       0.706   4.816 -10.315  0.00  0.00    +0.110 C 
ATOM     18  N   UNL     1      -0.214   4.748 -11.405  0.00  0.00    -0.131 NA
ENDBRANCH   2  17
TORSDOF 5
ENDMDL
MODEL 8
REMARK VINA RESULT:      -6.0      2.125      5.291
REMARK  Name = 
REMARK  5 active torsions:
REMARK  status: ('A' for Active; 'I' for Inactive)
REMARK    1  A    between atoms: C_2  and  N_3
REMARK    2  A    between atoms: N_3  and  C_4
REMARK    3  A    between atoms: C_6  and  C_8
REMARK    4  A    between atoms: C_8  and  C_9
REMARK    5  A    between atoms: C_16  and  C_17
REMARK                            x       y       z     vdW  Elec       q    Type
REMARK                         _______ _______ _______ _____ _____    ______ ____
ROOT
ATOM      1  C   UNL     1       3.195   6.305  -7.607  0.00  0.00    +0.089 C 
ATOM      2  C   UNL     1       3.675   6.916  -6.137  0.00  0.00    +0.032 C 
ATOM      3  C   UNL     1       3.603   5.276  -6.394  0.00  0.00    +0.015 C 
ENDROOT
BRANCH   1   4
ATOM      4  C   UNL     1       4.315   6.161  -8.557  0.00  0.00    -0.015 A 
ATOM      5  C   UNL     1       4.208   6.700  -9.808  0.00  0.00    -0.004 A 
ATOM      6  C   UNL     1       5.250   6.651 -10.702  0.00  0.00    -0.000 A 
ATOM      7  C   UNL     1       6.501   6.294 -10.227  0.00  0.00    -0.000 A 
ATOM      8  C   UNL     1       6.510   5.423  -9.154  0.00  0.00    -0.000 A 
ATOM      9  C   UNL     1       5.385   5.292  -8.346  0.00  0.00    -0.004 A 
ENDBRANCH   1   4
BRANCH   1  11
ATOM     10  N   UNL     1       0.883   5.701  -8.463  0.00  0.00    -0.279 N 
ATOM     11  C   UNL     1       1.868   6.617  -7.941  0.00  0.00    +0.229 C 
ATOM     12  O   UNL     1       1.738   7.771  -8.479  0.00  0.00    -0.275 OA
BRANCH  10  14
ATOM     13  C   UNL     1       0.173   4.963 -10.637  0.00  0.00    +0.023 C 
ATOM     14  C   UNL     1       0.058   6.070  -9.619  0.00  0.00    +0.093 C 
ENDBRANCH  10  14
BRANCH  10  15
ATOM     15  C   UNL     1       0.258   4.960  -7.423  0.00  0.00    +0.093 C 
ATOM     16  C   UNL     1      -1.085   5.317  -6.975  0.00  0.00    +0.023 C 
ENDBRANCH  10  15
ENDBRANCH   1  11
BRANCH   2  17
ATOM     17  C   UNL     1       2.155   6.932  -5.412  0.00  0.00    +0.110 C 
ATOM     18  N   UNL     1       2.397   6.703  -4.024  0.00  0.00    -0.131 NA
ENDBRANCH   2  17
TORSDOF 5
ENDMDL
MODEL 9
REMARK VINA RESULT:      -5.9      2.202      3.313
REMARK  Name = 
REMARK  5 active torsions:
REMARK  status: ('A' for Active; 'I' for Inactive)
REMARK    1  A    between atoms: C_2  and  N_3
REMARK    2  A    between atoms: N_3  and  C_4
REMARK    3  A    between atoms: C_6  and  C_8
REMARK    4  A    between atoms: C_8  and  C_9
REMARK    5  A    between atoms: C_16  and  C_17
REMARK                            x       y       z     vdW  Elec       q    Type
REMARK                         _______ _______ _______ _____ _____    ______ ____
ROOT
ATOM      1  C   UNL     1       1.178   5.332  -8.111  0.00  0.00    +0.089 C 
ATOM      2  C   UNL     1       2.306   4.304  -7.451  0.00  0.00    +0.032 C 
ATOM      3  C   UNL     1       2.535   5.949  -7.423  0.00  0.00    +0.015 C 
ENDROOT
BRANCH   1   4
ATOM      4  C   UNL     1       0.119   5.706  -7.154  0.00  0.00    -0.015 A 
ATOM      5  C   UNL     1       0.420   6.532  -6.108  0.00  0.00    -0.004 A 
ATOM      6  C   UNL     1      -0.547   6.963  -5.232  0.00  0.00    -0.000 A 
ATOM      7  C   UNL     1      -1.873   6.771  -5.579  0.00  0.00    -0.000 A 
ATOM      8  C   UNL     1      -2.136   5.661  -6.360  0.00  0.00    -0.000 A 
ATOM      9  C   UNL     1      -1.120   5.069  -7.103  0.00  0.00    -0.004 A 
ENDBRANCH   1   4
BRANCH   1  11
ATOM     10  N   UNL     1       0.975   6.238 -10.474  0.00  0.00    -0.279 N 
ATOM     11  C   UNL     1       1.017   5.177  -9.496  0.00  0.00    +0.229 C 
ATOM     12  O   UNL     1       0.199   4.244  -9.811  0.00  0.00    -0.275 OA
BRANCH  10  14
ATOM     13  C   UNL     1      -0.679   7.640 -11.510  0.00  0.00    +0.023 C 
ATOM     14  C   UNL     1      -0.066   6.262 -11.507  0.00  0.00    +0.093 C 
ENDBRANCH  10  14
BRANCH  10  15
ATOM     15  C   UNL     1       2.282   6.649 -10.853  0.00  0.00    +0.093 C 
ATOM     16  C   UNL     1       2.939   6.032 -12.001  0.00  0.00    +0.023 C 
ENDBRANCH  10  15
ENDBRANCH   1  11
BRANCH   2  17
ATOM     17  C   UNL     1       3.261   4.131  -8.827  0.00  0.00    +0.110 C 
ATOM     18  N   UNL     1       4.517   4.719  -8.490  0.00  0.00    -0.131 NA
ENDBRANCH   2  17
TORSDOF 5
ENDMDL
