MODEL 1
REMARK VINA RESULT:      -5.7      0.000      0.000
REMARK  Name = 
REMARK  3 active torsions:
REMARK  status: ('A' for Active; 'I' for Inactive)
REMARK    1  A    between atoms: C_3  and  C_4
REMARK    2  A    between atoms: N_6  and  C_7
REMARK    3  A    between atoms: N_6  and  C_9
REMARK                            x       y       z     vdW  Elec       q    Type
REMARK                         _______ _______ _______ _____ _____    ______ ____
ROOT
ATOM      1  C   UNL     1       2.996   6.281  -4.867  0.00  0.00    +0.253 C 
ATOM      2  N   UNL     1       2.756   5.585  -6.097  0.00  0.00    -0.255 N 
ATOM      3  O   UNL     1       2.030   6.915  -4.348  0.00  0.00    -0.270 OA
ENDROOT
BRANCH   2   4
ATOM      4  C   UNL     1       3.598   5.889  -7.197  0.00  0.00    +0.050 A 
ATOM      5  C   UNL     1       3.076   6.676  -8.218  0.00  0.00    -0.008 A 
ATOM      6  C   UNL     1       2.130   7.780  -7.863  0.00  0.00    +0.032 C 
ATOM      7  C   UNL     1       3.536   6.506  -9.518  0.00  0.00    -0.003 A 
ATOM      8  C   UNL     1       4.705   5.787  -9.737  0.00  0.00    -0.000 A 
ATOM      9  C   UNL     1       5.494   5.499  -8.629  0.00  0.00    +0.001 A 
ATOM     10  C   UNL     1       4.814   5.297  -7.433  0.00  0.00    +0.015 A 
ENDBRANCH   2   4
BRANCH   1  13
ATOM     11  C   UNL     1       5.430   7.370  -4.160  0.00  0.00    +0.031 C 
ATOM     12  C   UNL     1       5.124   5.954  -3.803  0.00  0.00    -0.021 C 
ATOM     13  C   UNL     1       3.857   5.559  -3.922  0.00  0.00    +0.054 C 
ENDBRANCH   1  13
BRANCH   2  14
ATOM     14  C   UNL     1       1.928   4.410  -6.005  0.00  0.00    +0.099 C 
ATOM     15  C   UNL     1       0.487   4.665  -6.333  0.00  0.00    +0.024 C 
ENDBRANCH   2  14
TORSDOF 3
ENDMDL
MODEL 2
REMARK VINA RESULT:      -5.7      3.131      5.807
REMARK  Name = 
REMARK  3 active torsions:
REMARK  status: ('A' for Active; 'I' for Inactive)
REMARK    1  A    between atoms: C_3  and  C_4
REMARK    2  A    between atoms: N_6  and  C_7
REMARK    3  A    between atoms: N_6  and  C_9
REMARK                            x       y       z     vdW  Elec       q    Type
REMARK                         _______ _______ _______ _____ _____    ______ ____
ROOT
ATOM      1  C   UNL     1       1.704   5.894 -10.283  0.00  0.00    +0.253 C 
ATOM      2  N   UNL     1       1.749   5.298  -8.980  0.00  0.00    -0.255 N 
ATOM      3  O   UNL     1       2.771   6.405 -10.735  0.00  0.00    -0.270 OA
ENDROOT
BRANCH   2   4
ATOM      4  C   UNL     1       0.821   5.762  -8.013  0.00  0.00    +0.050 A 
ATOM      5  C   UNL     1       1.289   6.609  -7.016  0.00  0.00    -0.008 A 
ATOM      6  C   UNL     1       2.348   7.609  -7.360  0.00  0.00    +0.032 C 
ATOM      7  C   UNL     1       0.683   6.599  -5.766  0.00  0.00    -0.003 A 
ATOM      8  C   UNL     1      -0.554   5.982  -5.615  0.00  0.00    -0.000 A 
ATOM      9  C   UNL     1      -1.240   5.639  -6.775  0.00  0.00    +0.001 A 
ATOM     10  C   UNL     1      -0.455   5.277  -7.864  0.00  0.00    +0.015 A 
ENDBRANCH   2   4
BRANCH   1  13
ATOM     11  C   UNL     1      -0.523   7.100 -11.373  0.00  0.00    +0.031 C 
ATOM     12  C   UNL     1      -0.310   5.636 -11.564  0.00  0.00    -0.021 C 
ATOM     13  C   UNL     1       0.894   5.154 -11.258  0.00  0.00    +0.054 C 
ENDBRANCH   1  13
BRANCH   2  14
ATOM     14  C   UNL     1       2.481   4.061  -8.878  0.00  0.00    +0.099 C 
ATOM     15  C   UNL     1       3.959   4.251  -8.707  0.00  0.00    +0.024 C 
ENDBRANCH   2  14
TORSDOF 3
ENDMDL
MODEL 3
REMARK VINA RESULT:      -5.5      2.807      5.761
REMARK  Name = 
REMARK  3 active torsions:
REMARK  status: ('A' for Active; 'I' for Inactive)
REMARK    1  A    between atoms: C_3  and  C_4
REMARK    2  A    between atoms: N_6  and  C_7
REMARK    3  A    between atoms: N_6  and  C_9
REMARK                            x       y       z     vdW  Elec       q    Type
REMARK                         _______ _______ _______ _____ _____    ______ ____
ROOT
ATOM      1  C   UNL     1       0.117   6.524  -5.760  0.00  0.00    +0.253 C 
ATOM      2  N   UNL     1       0.840   5.488  -5.083  0.00  0.00    -0.255 N 
ATOM      3  O   UNL     1       0.698   7.125  -6.712  0.00  0.00    -0.270 OA
ENDROOT
BRANCH   2   4
ATOM      4  C   UNL     1       0.981   5.598  -3.676  0.00  0.00    +0.050 A 
ATOM      5  C   UNL     1       2.227   5.950  -3.172  0.00  0.00    -0.008 A 
ATOM      6  C   UNL     1       3.061   6.929  -3.937  0.00  0.00    +0.032 C 
ATOM      7  C   UNL     1       2.616   5.491  -1.920  0.00  0.00    -0.003 A 
ATOM      8  C   UNL     1       1.660   4.952  -1.067  0.00  0.00    -0.000 A 
ATOM      9  C   UNL     1       0.325   5.141  -1.405  0.00  0.00    +0.001 A 
ATOM     10  C   UNL     1       0.041   5.183  -2.765  0.00  0.00    +0.015 A 
ENDBRANCH   2   4
BRANCH   1  13
ATOM     11  C   UNL     1      -1.786   8.123  -4.564  0.00  0.00    +0.031 C 
ATOM     12  C   UNL     1      -2.195   6.829  -5.185  0.00  0.00    -0.021 C 
ATOM     13  C   UNL     1      -1.305   6.228  -5.974  0.00  0.00    +0.054 C 
ENDBRANCH   1  13
BRANCH   2  14
ATOM     14  C   UNL     1       1.049   4.274  -5.829  0.00  0.00    +0.099 C 
ATOM     15  C   UNL     1       2.421   4.163  -6.423  0.00  0.00    +0.024 C 
ENDBRANCH   2  14
TORSDOF 3
ENDMDL
MODEL 4
REMARK VINA RESULT:      -5.5      2.723      4.663
REMARK  Name = 
REMARK  3 active torsions:
REMARK  status: ('A' for Active; 'I' for Inactive)
REMARK    1  A    between atoms: C_3  and  C_4
REMARK    2  A    between atoms: N_6  and  C_7
REMARK    3  A    between atoms: N_6  and  C_9
REMARK                            x       y       z     vdW  Elec       q    Type
REMARK                         _______ _______ _______ _____ _____    ______ ____
ROOT
ATOM      1  C   UNL     1       1.945   6.394  -3.943  0.00  0.00    +0.253 C 
ATOM      2  N   UNL     1       0.600   5.912  -3.824  0.00  0.00    -0.255 N 
ATOM      3  O   UNL     1       2.326   7.289  -3.132  0.00  0.00    -0.270 OA
ENDROOT
BRANCH   2   4
ATOM      4  C   UNL     1      -0.225   5.976  -4.975  0.00  0.00    +0.050 A 
ATOM      5  C   UNL     1      -1.383   6.742  -4.905  0.00  0.00    -0.008 A 
ATOM      6  C   UNL     1      -1.358   8.012  -4.112  0.00  0.00    +0.032 C 
ATOM      7  C   UNL     1      -2.489   6.385  -5.666  0.00  0.00    -0.003 A 
ATOM      8  C   UNL     1      -2.336   5.470  -6.700  0.00  0.00    -0.000 A 
ATOM      9  C   UNL     1      -1.037   5.159  -7.089  0.00  0.00    +0.001 A 
ATOM     10  C   UNL     1      -0.079   5.178  -6.082  0.00  0.00    +0.015 A 
ENDBRANCH   2   4
BRANCH   1  13
ATOM     11  C   UNL     1       3.481   6.619  -6.223  0.00  0.00    +0.031 C 
ATOM     12  C   UNL     1       3.467   5.332  -5.467  0.00  0.00    -0.021 C 
ATOM     13  C   UNL     1       2.935   5.352  -4.246  0.00  0.00    +0.054 C 
ENDBRANCH   1  13
BRANCH   2  14
ATOM     14  C   UNL     1       0.322   5.099  -2.668  0.00  0.00    +0.099 C 
ATOM     15  C   UNL     1      -0.264   5.866  -1.521  0.00  0.00    +0.024 C 
ENDBRANCH   2  14
TORSDOF 3
ENDMDL
MODEL 5
REMARK VINA RESULT:      -5.4      1.924      3.978
REMARK  Name = 
REMARK  3 active torsions:
REMARK  status: ('A' for Active; 'I' for Inactive)
REMARK    1  A    between atoms: C_3  and  C_4
REMARK    2  A    between atoms: N_6  and  C_7
REMARK    3  A    between atoms: N_6  and  C_9
REMARK                            x       y       z     vdW  Elec       q    Type
REMARK                         _______ _______ _______ _____ _____    ______ ____
ROOT
ATOM      1  C   UNL     1       0.433   5.873  -4.506  0.00  0.00    +0.253 C 
ATOM      2  N   UNL     1       1.722   6.310  -4.956  0.00  0.00    -0.255 N 
ATOM      3  O   UNL     1       0.391   4.931  -3.659  0.00  0.00    -0.270 OA
ENDROOT
BRANCH   2   4
ATOM      4  C   UNL     1       1.965   6.308  -6.352  0.00  0.00    +0.050 A 
ATOM      5  C   UNL     1       2.557   5.180  -6.909  0.00  0.00    -0.008 A 
ATOM      6  C   UNL     1       2.198   3.835  -6.360  0.00  0.00    +0.032 C 
ATOM      7  C   UNL     1       3.363   5.312  -8.033  0.00  0.00    -0.003 A 
ATOM      8  C   UNL     1       3.325   6.495  -8.761  0.00  0.00    -0.000 A 
ATOM      9  C   UNL     1       2.293   7.383  -8.482  0.00  0.00    +0.001 A 
ATOM     10  C   UNL     1       1.853   7.411  -7.163  0.00  0.00    +0.015 A 
ENDBRANCH   2   4
BRANCH   1  13
ATOM     11  C   UNL     1      -1.882   5.929  -6.004  0.00  0.00    +0.031 C 
ATOM     12  C   UNL     1      -1.497   7.123  -5.197  0.00  0.00    -0.021 C 
ATOM     13  C   UNL     1      -0.533   6.959  -4.293  0.00  0.00    +0.054 C 
ENDBRANCH   1  13
BRANCH   2  14
ATOM     14  C   UNL     1       2.514   7.031  -3.992  0.00  0.00    +0.099 C 
ATOM     15  C   UNL     1       3.970   7.101  -4.345  0.00  0.00    +0.024 C 
ENDBRANCH   2  14
TORSDOF 3
ENDMDL
MODEL 6
REMARK VINA RESULT:      -5.4      2.022      4.372
REMARK  Name = 
REMARK  3 active torsions:
REMARK  status: ('A' for Active; 'I' for Inactive)
REMARK    1  A    between atoms: C_3  and  C_4
REMARK    2  A    between atoms: N_6  and  C_7
REMARK    3  A    between atoms: N_6  and  C_9
REMARK                            x       y       z     vdW  Elec       q    Type
REMARK                         _______ _______ _______ _____ _____    ______ ____
ROOT
ATOM      1  C   UNL     1       3.197   6.232  -5.372  0.00  0.00    +0.253 C 
ATOM      2  N   UNL     1       2.132   6.639  -6.241  0.00  0.00    -0.255 N 
ATOM      3  O   UNL     1       4.092   5.473  -5.850  0.00  0.00    -0.270 OA
ENDROOT
BRANCH   2   4
ATOM      4  C   UNL     1       0.804   6.378  -5.819  0.00  0.00    +0.050 A 
ATOM      5  C   UNL     1       0.209   5.194  -6.238  0.00  0.00    -0.008 A 
ATOM      6  C   UNL     1       1.055   3.965  -6.354  0.00  0.00    +0.032 C 
ATOM      7  C   UNL     1      -1.168   5.144  -6.417  0.00  0.00    -0.003 A 
ATOM      8  C   UNL     1      -1.959   6.160  -5.892  0.00  0.00    -0.000 A 
ATOM      9  C   UNL     1      -1.360   7.033  -4.991  0.00  0.00    +0.001 A 
ATOM     10  C   UNL     1      -0.011   7.295  -5.201  0.00  0.00    +0.015 A 
ENDBRANCH   2   4
BRANCH   1  13
ATOM     11  C   UNL     1       2.759   5.991  -2.660  0.00  0.00    +0.031 C 
ATOM     12  C   UNL     1       3.228   7.293  -3.218  0.00  0.00    -0.021 C 
ATOM     13  C   UNL     1       3.679   7.288  -4.472  0.00  0.00    +0.054 C 
ENDBRANCH   1  13
BRANCH   2  14
ATOM     14  C   UNL     1       2.487   7.574  -7.279  0.00  0.00    +0.099 C 
ATOM     15  C   UNL     1       2.161   7.090  -8.660  0.00  0.00    +0.024 C 
ENDBRANCH   2  14
TORSDOF 3
ENDMDL
MODEL 7
REMARK VINA RESULT:      -5.3      3.402      5.124
REMARK  Name = 
REMARK  3 active torsions:
REMARK  status: ('A' for Active; 'I' for Inactive)
REMARK    1  A    between atoms: C_3  and  C_4
REMARK    2  A    between atoms: N_6  and  C_7
REMARK    3  A    between atoms: N_6  and  C_9
REMARK                            x       y       z     vdW  Elec       q    Type
REMARK                         _______ _______ _______ _____ _____    ______ ____
ROOT
ATOM      1  C   UNL     1       2.963   6.129  -9.855  0.00  0.00    +0.253 C 
ATOM      2  N   UNL     1       3.320   6.298 -11.233  0.00  0.00    -0.255 N 
ATOM      3  O   UNL     1       2.028   6.848  -9.394  0.00  0.00    -0.270 OA
ENDROOT
BRANCH   2   4
ATOM      4  C   UNL     1       4.675   6.593 -11.529  0.00  0.00    +0.050 A 
ATOM      5  C   UNL     1       5.403   5.654 -12.250  0.00  0.00    -0.008 A 
ATOM      6  C   UNL     1       4.710   4.877 -13.324  0.00  0.00    +0.032 C 
ATOM      7  C   UNL     1       6.774   5.546 -12.048  0.00  0.00    -0.003 A 
ATOM      8  C   UNL     1       7.443   6.560 -11.373  0.00  0.00    -0.000 A 
ATOM      9  C   UNL     1       6.755   7.750 -11.165  0.00  0.00    +0.001 A 
ATOM     10  C   UNL     1       5.381   7.636 -10.982  0.00  0.00    +0.015 A 
ENDBRANCH   2   4
BRANCH   1  13
ATOM     11  C   UNL     1       4.965   5.285  -8.156  0.00  0.00    +0.031 C 
ATOM     12  C   UNL     1       4.077   4.277  -8.807  0.00  0.00    -0.021 C 
ATOM     13  C   UNL     1       2.972   4.734  -9.395  0.00  0.00    +0.054 C 
ENDBRANCH   1  13
BRANCH   2  14
ATOM     14  C   UNL     1       2.363   5.814 -12.196  0.00  0.00    +0.099 C 
ATOM     15  C   UNL     1       1.455   6.882 -12.727  0.00  0.00    +0.024 C 
ENDBRANCH   2  14
TORSDOF 3
ENDMDL
MODEL 8
REMARK VINA RESULT:      -5.1      1.314      2.308
REMARK  Name = 
REMARK  3 active torsions:
REMARK  status: ('A' for Active; 'I' for Inactive)
REMARK    1  A    between atoms: C_3  and  C_4
REMARK    2  A    between atoms: N_6  and  C_7
REMARK    3  A    between atoms: N_6  and  C_9
REMARK                            x       y       z     vdW  Elec       q    Type
REMARK                         _______ _______ _______ _____ _____    ______ ____
ROOT
ATOM      1  C   UNL     1       2.614   6.393  -3.940  0.00  0.00    +0.253 C 
ATOM      2  N   UNL     1       1.617   6.003  -4.894  0.00  0.00    -0.255 N 
ATOM      3  O   UNL     1       2.280   7.222  -3.043  0.00  0.00    -0.270 OA
ENDROOT
BRANCH   2   4
ATOM      4  C   UNL     1       1.920   6.177  -6.268  0.00  0.00    +0.050 A 
ATOM      5  C   UNL     1       2.544   5.129  -6.935  0.00  0.00    -0.008 A 
ATOM      6  C   UNL     1       2.172   3.725  -6.575  0.00  0.00    +0.032 C 
ATOM      7  C   UNL     1       3.397   5.402  -7.997  0.00  0.00    -0.003 A 
ATOM      8  C   UNL     1       3.382   6.667  -8.573  0.00  0.00    -0.000 A 
ATOM      9  C   UNL     1       2.332   7.511  -8.230  0.00  0.00    +0.001 A 
ATOM     10  C   UNL     1       1.834   7.372  -6.939  0.00  0.00    +0.015 A 
ENDBRANCH   2   4
BRANCH   1  13
ATOM     11  C   UNL     1       5.319   6.535  -4.457  0.00  0.00    +0.031 C 
ATOM     12  C   UNL     1       4.725   5.250  -3.985  0.00  0.00    -0.021 C 
ATOM     13  C   UNL     1       3.486   5.298  -3.497  0.00  0.00    +0.054 C 
ENDBRANCH   1  13
BRANCH   2  14
ATOM     14  C   UNL     1       0.561   5.160  -4.394  0.00  0.00    +0.099 C 
ATOM     15  C   UNL     1      -0.808   5.747  -4.567  0.00  0.00    +0.024 C 
ENDBRANCH   2  14
TORSDOF 3
ENDMDL
MODEL 9
REMARK VINA RESULT:      -5.1      2.434      4.486
REMARK  Name = 
REMARK  3 active torsions:
REMARK  status: ('A' for Active; 'I' for Inactive)
REMARK    1  A    between atoms: C_3  and  C_4
REMARK    2  A    between atoms: N_6  and  C_7
REMARK    3  A    between atoms: N_6  and  C_9
REMARK                            x       y       z     vdW  Elec       q    Type
REMARK                         _______ _______ _______ _____ _____    ______ ____
ROOT
ATOM      1  C   UNL     1       2.570   4.432  -8.055  0.00  0.00    +0.253 C 
ATOM      2  N   UNL     1       1.579   5.327  -8.578  0.00  0.00    -0.255 N 
ATOM      3  O   UNL     1       2.701   3.304  -8.615  0.00  0.00    -0.270 OA
ENDROOT
BRANCH   2   4
ATOM      4  C   UNL     1       0.602   5.822  -7.679  0.00  0.00    +0.050 A 
ATOM      5  C   UNL     1       0.958   6.875  -6.845  0.00  0.00    -0.008 A 
ATOM      6  C   UNL     1       1.876   7.932  -7.375  0.00  0.00    +0.032 C 
ATOM      7  C   UNL     1       0.362   6.994  -5.596  0.00  0.00    -0.003 A 
ATOM      8  C   UNL     1      -0.783   6.258  -5.317  0.00  0.00    -0.000 A 
ATOM      9  C   UNL     1      -1.422   5.642  -6.387  0.00  0.00    +0.001 A 
ATOM     10  C   UNL     1      -0.600   5.208  -7.421  0.00  0.00    +0.015 A 
ENDBRANCH   2   4
BRANCH   1  13
ATOM     11  C   UNL     1       3.252   4.495  -5.384  0.00  0.00    +0.031 C 
ATOM     12  C   UNL     1       4.000   5.346  -6.356  0.00  0.00    -0.021 C 
ATOM     13  C   UNL     1       3.821   5.086  -7.650  0.00  0.00    +0.054 C 
ENDBRANCH   1  13
BRANCH   2  14
ATOM     14  C   UNL     1       1.871   5.907  -9.864  0.00  0.00    +0.099 C 
ATOM     15  C   UNL     1       0.665   6.471 -10.555  0.00  0.00    +0.024 C 
ENDBRANCH   2  14
TORSDOF 3
ENDMDL
