MODEL 1
REMARK VINA RESULT:      -4.7      0.000      0.000
REMARK  Name = 
REMARK  0 active torsions:
REMARK  status: ('A' for Active; 'I' for Inactive)
REMARK                            x       y       z     vdW  Elec       q    Type
REMARK                         _______ _______ _______ _____ _____    ______ ____
ROOT
ATOM      1  O   UNL     1       7.506   4.783 -13.718  0.00  0.00    -0.286 OA
ATOM      2  C   UNL     1       7.620   5.688 -12.665  0.00  0.00    +0.199 A 
ATOM      3  C   UNL     1       6.663   6.691 -12.582  0.00  0.00    +0.084 A 
ATOM      4  C   UNL     1       6.641   7.535 -11.479  0.00  0.00    +0.199 A 
ATOM      5  O   UNL     1       6.475   8.915 -11.623  0.00  0.00    -0.286 OA
ATOM      6  C   UNL     1       7.331   7.126 -10.344  0.00  0.00    +0.042 A 
ATOM      7  C   UNL     1       7.809   5.821 -10.304  0.00  0.00    +0.007 A 
ATOM      8  C   UNL     1       8.296   5.317 -11.508  0.00  0.00    +0.042 A 
ENDROOT
TORSDOF 0
ENDMDL
MODEL 2
REMARK VINA RESULT:      -4.6      1.947      3.229
REMARK  Name = 
REMARK  0 active torsions:
REMARK  status: ('A' for Active; 'I' for Inactive)
REMARK                            x       y       z     vdW  Elec       q    Type
REMARK                         _______ _______ _______ _____ _____    ______ ____
ROOT
ATOM      1  O   UNL     1       3.362   6.150 -11.775  0.00  0.00    -0.286 OA
ATOM      2  C   UNL     1       4.743   6.217 -11.603  0.00  0.00    +0.199 A 
ATOM      3  C   UNL     1       5.531   5.509 -12.501  0.00  0.00    +0.084 A 
ATOM      4  C   UNL     1       6.912   5.650 -12.468  0.00  0.00    +0.199 A 
ATOM      5  O   UNL     1       7.758   4.540 -12.557  0.00  0.00    -0.286 OA
ATOM      6  C   UNL     1       7.430   6.749 -11.794  0.00  0.00    +0.042 A 
ATOM      7  C   UNL     1       6.546   7.744 -11.390  0.00  0.00    +0.007 A 
ATOM      8  C   UNL     1       5.303   7.304 -10.941  0.00  0.00    +0.042 A 
ENDROOT
TORSDOF 0
ENDMDL
MODEL 3
REMARK VINA RESULT:      -4.5      1.831      2.074
REMARK  Name = 
REMARK  0 active torsions:
REMARK  status: ('A' for Active; 'I' for Inactive)
REMARK                            x       y       z     vdW  Elec       q    Type
REMARK                         _______ _______ _______ _____ _____    ______ ____
ROOT
ATOM      1  O   UNL     1       7.704   4.523 -12.808  0.00  0.00    -0.286 OA
ATOM      2  C   UNL     1       6.930   5.603 -12.389  0.00  0.00    +0.199 A 
ATOM      3  C   UNL     1       5.657   5.323 -11.908  0.00  0.00    +0.084 A 
ATOM      4  C   UNL     1       4.894   6.338 -11.345  0.00  0.00    +0.199 A 
ATOM      5  O   UNL     1       3.539   6.487 -11.658  0.00  0.00    -0.286 OA
ATOM      6  C   UNL     1       5.553   7.499 -10.958  0.00  0.00    +0.042 A 
ATOM      7  C   UNL     1       6.943   7.490 -10.951  0.00  0.00    +0.007 A 
ATOM      8  C   UNL     1       7.550   6.780 -11.985  0.00  0.00    +0.042 A 
ENDROOT
TORSDOF 0
ENDMDL
MODEL 4
REMARK VINA RESULT:      -4.5     11.743     12.585
REMARK  Name = 
REMARK  0 active torsions:
REMARK  status: ('A' for Active; 'I' for Inactive)
REMARK                            x       y       z     vdW  Elec       q    Type
REMARK                         _______ _______ _______ _____ _____    ______ ____
ROOT
ATOM      1  O   UNL     1      -2.678   4.889  -1.928  0.00  0.00    -0.286 OA
ATOM      2  C   UNL     1      -2.237   5.707  -2.966  0.00  0.00    +0.199 A 
ATOM      3  C   UNL     1      -2.697   5.416  -4.244  0.00  0.00    +0.084 A 
ATOM      4  C   UNL     1      -2.407   6.278  -5.295  0.00  0.00    +0.199 A 
ATOM      5  O   UNL     1      -1.983   5.793  -6.536  0.00  0.00    -0.286 OA
ATOM      6  C   UNL     1      -1.985   7.562  -4.975  0.00  0.00    +0.042 A 
ATOM      7  C   UNL     1      -2.089   7.974  -3.651  0.00  0.00    +0.007 A 
ATOM      8  C   UNL     1      -1.814   7.003  -2.691  0.00  0.00    +0.042 A 
ENDROOT
TORSDOF 0
ENDMDL
MODEL 5
REMARK VINA RESULT:      -4.5      1.608      2.329
REMARK  Name = 
REMARK  0 active torsions:
REMARK  status: ('A' for Active; 'I' for Inactive)
REMARK                            x       y       z     vdW  Elec       q    Type
REMARK                         _______ _______ _______ _____ _____    ______ ____
ROOT
ATOM      1  O   UNL     1       7.362   4.938 -13.975  0.00  0.00    -0.286 OA
ATOM      2  C   UNL     1       7.044   5.584 -12.783  0.00  0.00    +0.199 A 
ATOM      3  C   UNL     1       7.846   5.316 -11.681  0.00  0.00    +0.084 A 
ATOM      4  C   UNL     1       7.667   6.034 -10.505  0.00  0.00    +0.199 A 
ATOM      5  O   UNL     1       7.654   5.398  -9.260  0.00  0.00    -0.286 OA
ATOM      6  C   UNL     1       6.952   7.223 -10.581  0.00  0.00    +0.042 A 
ATOM      7  C   UNL     1       6.655   7.728 -11.843  0.00  0.00    +0.007 A 
ATOM      8  C   UNL     1       6.336   6.781 -12.814  0.00  0.00    +0.042 A 
ENDROOT
TORSDOF 0
ENDMDL
MODEL 6
REMARK VINA RESULT:      -4.4      0.864      2.950
REMARK  Name = 
REMARK  0 active torsions:
REMARK  status: ('A' for Active; 'I' for Inactive)
REMARK                            x       y       z     vdW  Elec       q    Type
REMARK                         _______ _______ _______ _____ _____    ______ ____
ROOT
ATOM      1  O   UNL     1       6.491   8.876 -11.354  0.00  0.00    -0.286 OA
ATOM      2  C   UNL     1       6.718   7.513 -11.524  0.00  0.00    +0.199 A 
ATOM      3  C   UNL     1       6.354   6.955 -12.742  0.00  0.00    +0.084 A 
ATOM      4  C   UNL     1       6.683   5.634 -13.023  0.00  0.00    +0.199 A 
ATOM      5  O   UNL     1       5.758   4.762 -13.604  0.00  0.00    -0.286 OA
ATOM      6  C   UNL     1       7.665   5.037 -12.242  0.00  0.00    +0.042 A 
ATOM      7  C   UNL     1       8.403   5.848 -11.386  0.00  0.00    +0.007 A 
ATOM      8  C   UNL     1       7.697   6.877 -10.767  0.00  0.00    +0.042 A 
ENDROOT
TORSDOF 0
ENDMDL
MODEL 7
REMARK VINA RESULT:      -4.4     11.093     11.990
REMARK  Name = 
REMARK  0 active torsions:
REMARK  status: ('A' for Active; 'I' for Inactive)
REMARK                            x       y       z     vdW  Elec       q    Type
REMARK                         _______ _______ _______ _____ _____    ______ ____
ROOT
ATOM      1  O   UNL     1      -2.713   4.651  -2.604  0.00  0.00    -0.286 OA
ATOM      2  C   UNL     1      -2.062   5.732  -3.194  0.00  0.00    +0.199 A 
ATOM      3  C   UNL     1      -0.794   5.503  -3.713  0.00  0.00    +0.084 A 
ATOM      4  C   UNL     1      -0.154   6.501  -4.438  0.00  0.00    +0.199 A 
ATOM      5  O   UNL     1       1.195   6.801  -4.226  0.00  0.00    -0.286 OA
ATOM      6  C   UNL     1      -0.934   7.544  -4.922  0.00  0.00    +0.042 A 
ATOM      7  C   UNL     1      -2.316   7.417  -4.845  0.00  0.00    +0.007 A 
ATOM      8  C   UNL     1      -2.805   6.793  -3.699  0.00  0.00    +0.042 A 
ENDROOT
TORSDOF 0
ENDMDL
MODEL 8
REMARK VINA RESULT:      -4.4     11.124     11.997
REMARK  Name = 
REMARK  0 active torsions:
REMARK  status: ('A' for Active; 'I' for Inactive)
REMARK                            x       y       z     vdW  Elec       q    Type
REMARK                         _______ _______ _______ _____ _____    ______ ____
ROOT
ATOM      1  O   UNL     1       1.319   6.461  -4.271  0.00  0.00    -0.286 OA
ATOM      2  C   UNL     1      -0.073   6.425  -4.233  0.00  0.00    +0.199 A 
ATOM      3  C   UNL     1      -0.662   5.746  -3.174  0.00  0.00    +0.084 A 
ATOM      4  C   UNL     1      -2.040   5.794  -3.003  0.00  0.00    +0.199 A 
ATOM      5  O   UNL     1      -2.776   4.644  -2.703  0.00  0.00    -0.286 OA
ATOM      6  C   UNL     1      -2.735   6.797  -3.669  0.00  0.00    +0.042 A 
ATOM      7  C   UNL     1      -2.000   7.808  -4.277  0.00  0.00    +0.007 A 
ATOM      8  C   UNL     1      -0.807   7.413  -4.879  0.00  0.00    +0.042 A 
ENDROOT
TORSDOF 0
ENDMDL
MODEL 9
REMARK VINA RESULT:      -4.2      9.917     10.939
REMARK  Name = 
REMARK  0 active torsions:
REMARK  status: ('A' for Active; 'I' for Inactive)
REMARK                            x       y       z     vdW  Elec       q    Type
REMARK                         _______ _______ _______ _____ _____    ______ ____
ROOT
ATOM      1  O   UNL     1      -1.988   8.121  -3.726  0.00  0.00    -0.286 OA
ATOM      2  C   UNL     1      -1.677   7.418  -4.888  0.00  0.00    +0.199 A 
ATOM      3  C   UNL     1      -0.382   6.931  -5.008  0.00  0.00    +0.084 A 
ATOM      4  C   UNL     1      -0.052   6.104  -6.075  0.00  0.00    +0.199 A 
ATOM      5  O   UNL     1       1.132   6.285  -6.795  0.00  0.00    -0.286 OA
ATOM      6  C   UNL     1      -1.095   5.506  -6.772  0.00  0.00    +0.042 A 
ATOM      7  C   UNL     1      -2.375   5.593  -6.234  0.00  0.00    +0.007 A 
ATOM      8  C   UNL     1      -2.690   6.798  -5.611  0.00  0.00    +0.042 A 
ENDROOT
TORSDOF 0
ENDMDL
