MODEL 1
REMARK VINA RESULT:      -9.6      0.000      0.000
REMARK  Name = 
REMARK  8 active torsions:
REMARK  status: ('A' for Active; 'I' for Inactive)
REMARK    1  A    between atoms: C_2  and  C_4
REMARK    2  A    between atoms: C_4  and  C_5
REMARK    3  A    between atoms: C_5  and  C_7
REMARK    4  A    between atoms: C_7  and  C_8
REMARK    5  A    between atoms: C_8  and  C_10
REMARK    6  A    between atoms: C_11  and  C_12
REMARK    7  A    between atoms: C_13  and  C_14
REMARK    8  A    between atoms: C_24  and  C_25
REMARK                            x       y       z     vdW  Elec       q    Type
REMARK                         _______ _______ _______ _____ _____    ______ ____
ROOT
ATOM      1  C   UNL     1       1.772   5.308  -7.658  0.00  0.00    +0.013 A 
ATOM      2  C   UNL     1       1.586   5.523  -6.306  0.00  0.00    +0.003 A 
ATOM      3  C   UNL     1       0.346   5.713  -5.752  0.00  0.00    +0.018 A 
ATOM      4  C   UNL     1      -0.746   5.715  -6.583  0.00  0.00    +0.081 A 
ATOM      5  C   UNL     1      -1.961   6.094  -6.039  0.00  0.00    +0.019 A 
ATOM      6  C   UNL     1      -2.080   6.072  -4.661  0.00  0.00    +0.002 A 
ATOM      7  C   UNL     1      -1.075   5.574  -3.836  0.00  0.00    +0.000 A 
ATOM      8  N   UNL     1      -0.579   5.383  -7.875  0.00  0.00    -0.250 NA
ATOM      9  C   UNL     1       0.179   5.533  -4.393  0.00  0.00    +0.001 A 
ATOM     10  C   UNL     1       0.645   5.338  -8.447  0.00  0.00    +0.059 A 
ENDROOT
BRANCH   2  11
ATOM     11  C   UNL     1       2.777   5.790  -5.504  0.00  0.00    +0.000 A 
ATOM     12  C   UNL     1       3.484   4.774  -4.924  0.00  0.00    +0.002 A 
ATOM     13  C   UNL     1       4.480   5.086  -4.009  0.00  0.00    +0.030 A 
ATOM     14  C   UNL     1       4.689   6.400  -3.668  0.00  0.00    +0.140 A 
ATOM     15  F   UNL     1       5.189   6.798  -2.467  0.00  0.00    -0.204 F 
ATOM     16  C   UNL     1       4.391   7.328  -4.660  0.00  0.00    +0.030 A 
ATOM     17  C   UNL     1       3.340   7.057  -5.491  0.00  0.00    +0.002 A 
ENDBRANCH   2  11
BRANCH  10  18
ATOM     18  C   UNL     1       0.771   5.606  -9.882  0.00  0.00    +0.040 C 
ATOM     19  C   UNL     1      -0.363   5.982 -10.748  0.00  0.00    +0.006 C 
ATOM     20  C   UNL     1       0.210   4.606 -10.875  0.00  0.00    +0.006 C 
ENDBRANCH  10  18
BRANCH   1  22
ATOM     21  C   UNL     1       3.831   5.862  -8.843  0.00  0.00    +0.006 C 
ATOM     22  C   UNL     1       3.054   4.989  -8.219  0.00  0.00    -0.001 C 
BRANCH  21  23
ATOM     23  C   UNL     1       4.796   4.978  -9.852  0.00  0.00    +0.177 C 
ATOM     24  O   UNL     1       4.007   5.471 -11.096  0.00  0.00    -0.218 OA
BRANCH  23  25
ATOM     25  C   UNL     1       5.891   6.241  -9.979  0.00  0.00    +0.071 C 
BRANCH  25  26
ATOM     26  C   UNL     1       5.604   6.752 -11.551  0.00  0.00    +0.166 C 
ATOM     27  O   UNL     1       5.784   8.262 -11.265  0.00  0.00    -0.222 OA
BRANCH  26  28
ATOM     28  C   UNL     1       7.242   6.598 -11.904  0.00  0.00    +0.147 C 
BRANCH  28  30
ATOM     29  O   UNL     1       7.935   4.508 -12.494  0.00  0.00    -0.246 OA
ATOM     30  C   UNL     1       7.330   5.353 -12.677  0.00  0.00    +0.367 C 
ATOM     31  O   UNL     1       6.187   5.027 -13.414  0.00  0.00    -0.246 OA
ENDBRANCH  28  30
ENDBRANCH  26  28
ENDBRANCH  25  26
ENDBRANCH  23  25
ENDBRANCH  21  23
ENDBRANCH   1  22
TORSDOF 8
ENDMDL
MODEL 2
REMARK VINA RESULT:      -9.0      2.393      4.581
REMARK  Name = 
REMARK  8 active torsions:
REMARK  status: ('A' for Active; 'I' for Inactive)
REMARK    1  A    between atoms: C_2  and  C_4
REMARK    2  A    between atoms: C_4  and  C_5
REMARK    3  A    between atoms: C_5  and  C_7
REMARK    4  A    between atoms: C_7  and  C_8
REMARK    5  A    between atoms: C_8  and  C_10
REMARK    6  A    between atoms: C_11  and  C_12
REMARK    7  A    between atoms: C_13  and  C_14
REMARK    8  A    between atoms: C_24  and  C_25
REMARK                            x       y       z     vdW  Elec       q    Type
REMARK                         _______ _______ _______ _____ _____    ______ ____
ROOT
ATOM      1  C   UNL     1       2.249   6.194  -7.337  0.00  0.00    +0.013 A 
ATOM      2  C   UNL     1       0.914   6.019  -7.640  0.00  0.00    +0.003 A 
ATOM      3  C   UNL     1      -0.044   5.837  -6.675  0.00  0.00    +0.018 A 
ATOM      4  C   UNL     1       0.351   5.802  -5.361  0.00  0.00    +0.081 A 
ATOM      5  C   UNL     1      -0.594   5.431  -4.421  0.00  0.00    +0.019 A 
ATOM      6  C   UNL     1      -1.925   5.493  -4.791  0.00  0.00    +0.002 A 
ATOM      7  C   UNL     1      -2.333   6.022  -6.012  0.00  0.00    +0.000 A 
ATOM      8  N   UNL     1       1.627   6.097  -5.060  0.00  0.00    -0.250 NA
ATOM      9  C   UNL     1      -1.371   6.055  -6.992  0.00  0.00    +0.001 A 
ATOM     10  C   UNL     1       2.593   6.133  -6.005  0.00  0.00    +0.059 A 
ENDROOT
BRANCH   2  11
ATOM     11  C   UNL     1       0.573   5.783  -9.040  0.00  0.00    +0.000 A 
ATOM     12  C   UNL     1       0.336   4.522  -9.510  0.00  0.00    +0.002 A 
ATOM     13  C   UNL     1       0.219   4.326 -10.879  0.00  0.00    +0.030 A 
ATOM     14  C   UNL     1       0.402   5.391 -11.726  0.00  0.00    +0.140 A 
ATOM     15  F   UNL     1       0.853   5.271 -13.004  0.00  0.00    -0.204 F 
ATOM     16  C   UNL     1       0.055   6.634 -11.206  0.00  0.00    +0.030 A 
ATOM     17  C   UNL     1       0.272   6.850  -9.874  0.00  0.00    +0.002 A 
ENDBRANCH   2  11
BRANCH  10  18
ATOM     18  C   UNL     1       3.973   5.824  -5.625  0.00  0.00    +0.040 C 
ATOM     19  C   UNL     1       4.427   5.679  -4.228  0.00  0.00    +0.006 C 
ATOM     20  C   UNL     1       4.827   6.904  -4.989  0.00  0.00    +0.006 C 
ENDBRANCH  10  18
BRANCH   1  22
ATOM     21  C   UNL     1       3.904   5.596  -9.027  0.00  0.00    +0.006 C 
ATOM     22  C   UNL     1       3.232   6.505  -8.336  0.00  0.00    -0.001 C 
BRANCH  21  23
ATOM     23  C   UNL     1       5.305   6.328  -9.508  0.00  0.00    +0.177 C 
ATOM     24  O   UNL     1       6.158   5.243  -8.795  0.00  0.00    -0.218 OA
BRANCH  23  25
ATOM     25  C   UNL     1       5.312   5.464 -10.945  0.00  0.00    +0.071 C 
BRANCH  25  26
ATOM     26  C   UNL     1       5.591   6.692 -12.053  0.00  0.00    +0.166 C 
ATOM     27  O   UNL     1       5.543   7.848 -11.026  0.00  0.00    -0.222 OA
BRANCH  26  28
ATOM     28  C   UNL     1       7.250   6.525 -11.826  0.00  0.00    +0.147 C 
BRANCH  28  30
ATOM     29  O   UNL     1       7.900   4.727 -13.067  0.00  0.00    -0.246 OA
ATOM     30  C   UNL     1       7.700   5.760 -12.995  0.00  0.00    +0.367 C 
ATOM     31  O   UNL     1       7.364   6.314 -14.235  0.00  0.00    -0.246 OA
ENDBRANCH  28  30
ENDBRANCH  26  28
ENDBRANCH  25  26
ENDBRANCH  23  25
ENDBRANCH  21  23
ENDBRANCH   1  22
TORSDOF 8
ENDMDL
MODEL 3
REMARK VINA RESULT:      -8.8      5.393      9.011
REMARK  Name = 
REMARK  8 active torsions:
REMARK  status: ('A' for Active; 'I' for Inactive)
REMARK    1  A    between atoms: C_2  and  C_4
REMARK    2  A    between atoms: C_4  and  C_5
REMARK    3  A    between atoms: C_5  and  C_7
REMARK    4  A    between atoms: C_7  and  C_8
REMARK    5  A    between atoms: C_8  and  C_10
REMARK    6  A    between atoms: C_11  and  C_12
REMARK    7  A    between atoms: C_13  and  C_14
REMARK    8  A    between atoms: C_24  and  C_25
REMARK                            x       y       z     vdW  Elec       q    Type
REMARK                         _______ _______ _______ _____ _____    ______ ____
ROOT
ATOM      1  C   UNL     1       1.849   6.579  -4.588  0.00  0.00    +0.013 A 
ATOM      2  C   UNL     1       0.916   6.514  -5.604  0.00  0.00    +0.003 A 
ATOM      3  C   UNL     1       1.255   6.639  -6.926  0.00  0.00    +0.018 A 
ATOM      4  C   UNL     1       2.571   6.863  -7.245  0.00  0.00    +0.081 A 
ATOM      5  C   UNL     1       2.865   7.173  -8.561  0.00  0.00    +0.019 A 
ATOM      6  C   UNL     1       1.914   6.868  -9.519  0.00  0.00    +0.002 A 
ATOM      7  C   UNL     1       0.752   6.165  -9.215  0.00  0.00    +0.000 A 
ATOM      8  N   UNL     1       3.493   6.802  -6.270  0.00  0.00    -0.250 NA
ATOM      9  C   UNL     1       0.378   6.186  -7.893  0.00  0.00    +0.001 A 
ATOM     10  C   UNL     1       3.151   6.823  -4.962  0.00  0.00    +0.059 A 
ENDROOT
BRANCH   2  11
ATOM     11  C   UNL     1      -0.492   6.555  -5.218  0.00  0.00    +0.000 A 
ATOM     12  C   UNL     1      -1.138   7.742  -5.017  0.00  0.00    +0.002 A 
ATOM     13  C   UNL     1      -2.408   7.729  -4.457  0.00  0.00    +0.030 A 
ATOM     14  C   UNL     1      -2.956   6.533  -4.068  0.00  0.00    +0.140 A 
ATOM     15  F   UNL     1      -3.868   6.410  -3.065  0.00  0.00    -0.204 F 
ATOM     16  C   UNL     1      -2.548   5.423  -4.799  0.00  0.00    +0.030 A 
ATOM     17  C   UNL     1      -1.260   5.401  -5.258  0.00  0.00    +0.002 A 
ENDBRANCH   2  11
BRANCH  10  18
ATOM     18  C   UNL     1       4.094   7.380  -3.988  0.00  0.00    +0.040 C 
ATOM     19  C   UNL     1       5.506   7.681  -4.294  0.00  0.00    +0.006 C 
ATOM     20  C   UNL     1       5.195   6.496  -3.434  0.00  0.00    +0.006 C 
ENDBRANCH  10  18
BRANCH   1  22
ATOM     21  C   UNL     1       1.792   5.203  -2.574  0.00  0.00    +0.006 C 
ATOM     22  C   UNL     1       1.514   6.329  -3.215  0.00  0.00    -0.001 C 
BRANCH  21  23
ATOM     23  C   UNL     1       0.694   5.092  -1.344  0.00  0.00    +0.177 C 
ATOM     24  O   UNL     1       1.826   5.160  -0.281  0.00  0.00    -0.218 OA
BRANCH  23  25
ATOM     25  C   UNL     1       0.495   6.756  -1.315  0.00  0.00    +0.071 C 
BRANCH  25  26
ATOM     26  C   UNL     1      -1.164   6.874  -1.094  0.00  0.00    +0.166 C 
ATOM     27  O   UNL     1      -1.431   5.350  -1.077  0.00  0.00    -0.222 OA
BRANCH  26  28
ATOM     28  C   UNL     1      -0.946   6.881   0.574  0.00  0.00    +0.147 C 
BRANCH  28  30
ATOM     29  O   UNL     1      -1.499   9.088   0.712  0.00  0.00    -0.246 OA
ATOM     30  C   UNL     1      -1.644   8.091   1.025  0.00  0.00    +0.367 C 
ATOM     31  O   UNL     1      -2.934   7.883   1.525  0.00  0.00    -0.246 OA
ENDBRANCH  28  30
ENDBRANCH  26  28
ENDBRANCH  25  26
ENDBRANCH  23  25
ENDBRANCH  21  23
ENDBRANCH   1  22
TORSDOF 8
ENDMDL
MODEL 4
REMARK VINA RESULT:      -8.7      4.467      8.620
REMARK  Name = 
REMARK  8 active torsions:
REMARK  status: ('A' for Active; 'I' for Inactive)
REMARK    1  A    between atoms: C_2  and  C_4
REMARK    2  A    between atoms: C_4  and  C_5
REMARK    3  A    between atoms: C_5  and  C_7
REMARK    4  A    between atoms: C_7  and  C_8
REMARK    5  A    between atoms: C_8  and  C_10
REMARK    6  A    between atoms: C_11  and  C_12
REMARK    7  A    between atoms: C_13  and  C_14
REMARK    8  A    between atoms: C_24  and  C_25
REMARK                            x       y       z     vdW  Elec       q    Type
REMARK                         _______ _______ _______ _____ _____    ______ ____
ROOT
ATOM      1  C   UNL     1       2.791   5.240  -7.666  0.00  0.00    +0.013 A 
ATOM      2  C   UNL     1       3.007   5.384  -9.022  0.00  0.00    +0.003 A 
ATOM      3  C   UNL     1       4.259   5.545  -9.558  0.00  0.00    +0.018 A 
ATOM      4  C   UNL     1       5.333   5.590  -8.705  0.00  0.00    +0.081 A 
ATOM      5  C   UNL     1       6.560   5.940  -9.241  0.00  0.00    +0.019 A 
ATOM      6  C   UNL     1       6.709   5.846 -10.613  0.00  0.00    +0.002 A 
ATOM      7  C   UNL     1       5.722   5.306 -11.433  0.00  0.00    +0.000 A 
ATOM      8  N   UNL     1       5.138   5.326  -7.402  0.00  0.00    -0.250 NA
ATOM      9  C   UNL     1       4.455   5.295 -10.902  0.00  0.00    +0.001 A 
ATOM     10  C   UNL     1       3.901   5.311  -6.855  0.00  0.00    +0.059 A 
ENDROOT
BRANCH   2  11
ATOM     11  C   UNL     1       1.835   5.610  -9.863  0.00  0.00    +0.000 A 
ATOM     12  C   UNL     1       1.130   4.566 -10.394  0.00  0.00    +0.002 A 
ATOM     13  C   UNL     1       0.155   4.828 -11.345  0.00  0.00    +0.030 A 
ATOM     14  C   UNL     1      -0.036   6.119 -11.771  0.00  0.00    +0.140 A 
ATOM     15  F   UNL     1      -0.509   6.446 -13.004  0.00  0.00    -0.204 F 
ATOM     16  C   UNL     1       0.251   7.105 -10.833  0.00  0.00    +0.030 A 
ATOM     17  C   UNL     1       1.283   6.879  -9.966  0.00  0.00    +0.002 A 
ENDBRANCH   2  11
BRANCH  10  18
ATOM     18  C   UNL     1       3.744   5.653  -5.439  0.00  0.00    +0.040 C 
ATOM     19  C   UNL     1       4.876   5.826  -4.507  0.00  0.00    +0.006 C 
ATOM     20  C   UNL     1       4.027   4.599  -4.385  0.00  0.00    +0.006 C 
ENDBRANCH  10  18
BRANCH   1  22
ATOM     21  C   UNL     1       0.651   5.874  -6.682  0.00  0.00    +0.006 C 
ATOM     22  C   UNL     1       1.497   4.952  -7.117  0.00  0.00    -0.001 C 
BRANCH  21  23
ATOM     23  C   UNL     1      -0.326   5.118  -5.584  0.00  0.00    +0.177 C 
ATOM     24  O   UNL     1       0.432   5.780  -4.401  0.00  0.00    -0.218 OA
BRANCH  23  25
ATOM     25  C   UNL     1      -1.436   6.374  -5.645  0.00  0.00    +0.071 C 
BRANCH  25  26
ATOM     26  C   UNL     1      -1.345   6.954  -4.073  0.00  0.00    +0.166 C 
ATOM     27  O   UNL     1      -1.862   8.375  -4.397  0.00  0.00    -0.222 OA
BRANCH  26  28
ATOM     28  C   UNL     1      -2.914   6.421  -3.781  0.00  0.00    +0.147 C 
BRANCH  28  30
ATOM     29  O   UNL     1      -2.696   4.868  -2.127  0.00  0.00    -0.246 OA
ATOM     30  C   UNL     1      -2.860   5.867  -2.423  0.00  0.00    +0.367 C 
ATOM     31  O   UNL     1      -2.495   6.774  -1.423  0.00  0.00    -0.246 OA
ENDBRANCH  28  30
ENDBRANCH  26  28
ENDBRANCH  25  26
ENDBRANCH  23  25
ENDBRANCH  21  23
ENDBRANCH   1  22
TORSDOF 8
ENDMDL
MODEL 5
REMARK VINA RESULT:      -8.7      3.900      7.189
REMARK  Name = 
REMARK  8 active torsions:
REMARK  status: ('A' for Active; 'I' for Inactive)
REMARK    1  A    between atoms: C_2  and  C_4
REMARK    2  A    between atoms: C_4  and  C_5
REMARK    3  A    between atoms: C_5  and  C_7
REMARK    4  A    between atoms: C_7  and  C_8
REMARK    5  A    between atoms: C_8  and  C_10
REMARK    6  A    between atoms: C_11  and  C_12
REMARK    7  A    between atoms: C_13  and  C_14
REMARK    8  A    between atoms: C_24  and  C_25
REMARK                            x       y       z     vdW  Elec       q    Type
REMARK                         _______ _______ _______ _____ _____    ______ ____
ROOT
ATOM      1  C   UNL     1       2.070   5.880  -7.919  0.00  0.00    +0.013 A 
ATOM      2  C   UNL     1       3.426   5.807  -7.669  0.00  0.00    +0.003 A 
ATOM      3  C   UNL     1       4.356   5.701  -8.671  0.00  0.00    +0.018 A 
ATOM      4  C   UNL     1       3.914   5.637  -9.969  0.00  0.00    +0.081 A 
ATOM      5  C   UNL     1       4.847   5.342 -10.947  0.00  0.00    +0.019 A 
ATOM      6  C   UNL     1       6.183   5.506 -10.629  0.00  0.00    +0.002 A 
ATOM      7  C   UNL     1       6.597   6.063  -9.422  0.00  0.00    +0.000 A 
ATOM      8  N   UNL     1       2.609   5.833 -10.219  0.00  0.00    -0.250 NA
ATOM      9  C   UNL     1       5.674   6.020  -8.406  0.00  0.00    +0.001 A 
ATOM     10  C   UNL     1       1.680   5.794  -9.237  0.00  0.00    +0.059 A 
ENDROOT
BRANCH   2  11
ATOM     11  C   UNL     1       3.838   5.597  -6.285  0.00  0.00    +0.000 A 
ATOM     12  C   UNL     1       3.717   4.374  -5.686  0.00  0.00    +0.002 A 
ATOM     13  C   UNL     1       3.928   4.272  -4.318  0.00  0.00    +0.030 A 
ATOM     14  C   UNL     1       4.194   5.407  -3.595  0.00  0.00    +0.140 A 
ATOM     15  F   UNL     1       3.884   5.554  -2.278  0.00  0.00    -0.204 F 
ATOM     16  C   UNL     1       4.853   6.417  -4.289  0.00  0.00    +0.030 A 
ATOM     17  C   UNL     1       4.559   6.574  -5.615  0.00  0.00    +0.002 A 
ENDBRANCH   2  11
BRANCH  10  18
ATOM     18  C   UNL     1       0.314   5.380  -9.564  0.00  0.00    +0.040 C 
ATOM     19  C   UNL     1      -0.029   4.519 -10.713  0.00  0.00    +0.006 C 
ATOM     20  C   UNL     1      -0.371   5.975 -10.780  0.00  0.00    +0.006 C 
ENDBRANCH  10  18
BRANCH   1  22
ATOM     21  C   UNL     1       0.938   7.274  -6.268  0.00  0.00    +0.006 C 
ATOM     22  C   UNL     1       1.106   6.112  -6.881  0.00  0.00    -0.001 C 
BRANCH  21  23
ATOM     23  C   UNL     1       0.277   6.925  -4.794  0.00  0.00    +0.177 C 
ATOM     24  O   UNL     1      -0.815   8.013  -4.987  0.00  0.00    -0.218 OA
BRANCH  23  25
ATOM     25  C   UNL     1      -0.705   5.745  -5.468  0.00  0.00    +0.071 C 
BRANCH  25  26
ATOM     26  C   UNL     1      -2.206   6.488  -5.372  0.00  0.00    +0.166 C 
ATOM     27  O   UNL     1      -2.743   5.938  -6.714  0.00  0.00    -0.222 OA
BRANCH  26  28
ATOM     28  C   UNL     1      -2.818   5.154  -4.550  0.00  0.00    +0.147 C 
BRANCH  28  30
ATOM     29  O   UNL     1      -3.774   6.262  -2.803  0.00  0.00    -0.246 OA
ATOM     30  C   UNL     1      -3.014   5.634  -3.177  0.00  0.00    +0.367 C 
ATOM     31  O   UNL     1      -2.471   4.819  -2.178  0.00  0.00    -0.246 OA
ENDBRANCH  28  30
ENDBRANCH  26  28
ENDBRANCH  25  26
ENDBRANCH  23  25
ENDBRANCH  21  23
ENDBRANCH   1  22
TORSDOF 8
ENDMDL
MODEL 6
REMARK VINA RESULT:      -8.7      5.636      8.991
REMARK  Name = 
REMARK  8 active torsions:
REMARK  status: ('A' for Active; 'I' for Inactive)
REMARK    1  A    between atoms: C_2  and  C_4
REMARK    2  A    between atoms: C_4  and  C_5
REMARK    3  A    between atoms: C_5  and  C_7
REMARK    4  A    between atoms: C_7  and  C_8
REMARK    5  A    between atoms: C_8  and  C_10
REMARK    6  A    between atoms: C_11  and  C_12
REMARK    7  A    between atoms: C_13  and  C_14
REMARK    8  A    between atoms: C_24  and  C_25
REMARK                            x       y       z     vdW  Elec       q    Type
REMARK                         _______ _______ _______ _____ _____    ______ ____
ROOT
ATOM      1  C   UNL     1       1.961   6.741  -4.478  0.00  0.00    +0.013 A 
ATOM      2  C   UNL     1       0.966   6.603  -5.426  0.00  0.00    +0.003 A 
ATOM      3  C   UNL     1       1.218   6.647  -6.773  0.00  0.00    +0.018 A 
ATOM      4  C   UNL     1       2.508   6.864  -7.188  0.00  0.00    +0.081 A 
ATOM      5  C   UNL     1       2.713   7.093  -8.538  0.00  0.00    +0.019 A 
ATOM      6  C   UNL     1       1.708   6.719  -9.411  0.00  0.00    +0.002 A 
ATOM      7  C   UNL     1       0.578   6.024  -8.990  0.00  0.00    +0.000 A 
ATOM      8  N   UNL     1       3.491   6.874  -6.273  0.00  0.00    -0.250 NA
ATOM      9  C   UNL     1       0.288   6.125  -7.651  0.00  0.00    +0.001 A 
ATOM     10  C   UNL     1       3.233   6.975  -4.949  0.00  0.00    +0.059 A 
ENDROOT
BRANCH   2  11
ATOM     11  C   UNL     1      -0.415   6.653  -4.954  0.00  0.00    +0.000 A 
ATOM     12  C   UNL     1      -1.092   7.838  -4.865  0.00  0.00    +0.002 A 
ATOM     13  C   UNL     1      -2.322   7.862  -4.223  0.00  0.00    +0.030 A 
ATOM     14  C   UNL     1      -2.799   6.712  -3.645  0.00  0.00    +0.140 A 
ATOM     15  F   UNL     1      -3.640   6.697  -2.575  0.00  0.00    -0.204 F 
ATOM     16  C   UNL     1      -2.396   5.528  -4.252  0.00  0.00    +0.030 A 
ATOM     17  C   UNL     1      -1.141   5.482  -4.791  0.00  0.00    +0.002 A 
ENDBRANCH   2  11
BRANCH  10  18
ATOM     18  C   UNL     1       4.227   7.601  -4.075  0.00  0.00    +0.040 C 
ATOM     19  C   UNL     1       5.673   7.633  -4.369  0.00  0.00    +0.006 C 
ATOM     20  C   UNL     1       5.181   6.723  -3.288  0.00  0.00    +0.006 C 
ENDBRANCH  10  18
BRANCH   1  22
ATOM     21  C   UNL     1       1.848   5.427  -2.426  0.00  0.00    +0.006 C 
ATOM     22  C   UNL     1       1.717   6.575  -3.073  0.00  0.00    -0.001 C 
BRANCH  21  23
ATOM     23  C   UNL     1       0.870   5.533  -1.099  0.00  0.00    +0.177 C 
ATOM     24  O   UNL     1       1.757   4.523  -0.320  0.00  0.00    -0.218 OA
BRANCH  23  25
ATOM     25  C   UNL     1       1.741   6.837  -0.508  0.00  0.00    +0.071 C 
BRANCH  25  26
ATOM     26  C   UNL     1       0.561   7.631   0.381  0.00  0.00    +0.166 C 
ATOM     27  O   UNL     1       0.867   6.923   1.722  0.00  0.00    -0.222 OA
BRANCH  26  28
ATOM     28  C   UNL     1       1.655   8.855   0.748  0.00  0.00    +0.147 C 
BRANCH  28  30
ATOM     29  O   UNL     1      -0.215  10.067   1.223  0.00  0.00    -0.246 OA
ATOM     30  C   UNL     1       0.825   9.923   1.318  0.00  0.00    +0.367 C 
ATOM     31  O   UNL     1       1.331  10.516   2.480  0.00  0.00    -0.246 OA
ENDBRANCH  28  30
ENDBRANCH  26  28
ENDBRANCH  25  26
ENDBRANCH  23  25
ENDBRANCH  21  23
ENDBRANCH   1  22
TORSDOF 8
ENDMDL
MODEL 7
REMARK VINA RESULT:      -8.7      3.844      7.027
REMARK  Name = 
REMARK  8 active torsions:
REMARK  status: ('A' for Active; 'I' for Inactive)
REMARK    1  A    between atoms: C_2  and  C_4
REMARK    2  A    between atoms: C_4  and  C_5
REMARK    3  A    between atoms: C_5  and  C_7
REMARK    4  A    between atoms: C_7  and  C_8
REMARK    5  A    between atoms: C_8  and  C_10
REMARK    6  A    between atoms: C_11  and  C_12
REMARK    7  A    between atoms: C_13  and  C_14
REMARK    8  A    between atoms: C_24  and  C_25
REMARK                            x       y       z     vdW  Elec       q    Type
REMARK                         _______ _______ _______ _____ _____    ______ ____
ROOT
ATOM      1  C   UNL     1       2.548   6.147  -8.772  0.00  0.00    +0.013 A 
ATOM      2  C   UNL     1       3.003   6.141 -10.076  0.00  0.00    +0.003 A 
ATOM      3  C   UNL     1       2.216   5.758 -11.131  0.00  0.00    +0.018 A 
ATOM      4  C   UNL     1       0.935   5.339 -10.871  0.00  0.00    +0.081 A 
ATOM      5  C   UNL     1       0.221   4.781 -11.917  0.00  0.00    +0.019 A 
ATOM      6  C   UNL     1       0.674   5.022 -13.202  0.00  0.00    +0.002 A 
ATOM      7  C   UNL     1       1.729   5.890 -13.467  0.00  0.00    +0.000 A 
ATOM      8  N   UNL     1       0.453   5.463  -9.623  0.00  0.00    -0.250 NA
ATOM      9  C   UNL     1       2.573   6.134 -12.411  0.00  0.00    +0.001 A 
ATOM     10  C   UNL     1       1.262   5.701  -8.566  0.00  0.00    +0.059 A 
ENDROOT
BRANCH   2  11
ATOM     11  C   UNL     1       4.437   6.321 -10.282  0.00  0.00    +0.000 A 
ATOM     12  C   UNL     1       5.313   5.285 -10.119  0.00  0.00    +0.002 A 
ATOM     13  C   UNL     1       6.676   5.549 -10.125  0.00  0.00    +0.030 A 
ATOM     14  C   UNL     1       7.106   6.848 -10.235  0.00  0.00    +0.140 A 
ATOM     15  F   UNL     1       8.283   7.300  -9.724  0.00  0.00    -0.204 F 
ATOM     16  C   UNL     1       6.267   7.695 -10.951  0.00  0.00    +0.030 A 
ATOM     17  C   UNL     1       4.919   7.489 -10.855  0.00  0.00    +0.002 A 
ENDBRANCH   2  11
BRANCH  10  18
ATOM     18  C   UNL     1       0.865   5.217  -7.241  0.00  0.00    +0.040 C 
ATOM     19  C   UNL     1      -0.521   4.864  -6.879  0.00  0.00    +0.006 C 
ATOM     20  C   UNL     1       0.065   6.126  -6.329  0.00  0.00    +0.006 C 
ENDBRANCH  10  18
BRANCH   1  22
ATOM     21  C   UNL     1       4.166   5.933  -6.958  0.00  0.00    +0.006 C 
ATOM     22  C   UNL     1       3.331   6.661  -7.684  0.00  0.00    -0.001 C 
BRANCH  21  23
ATOM     23  C   UNL     1       4.301   6.703  -5.503  0.00  0.00    +0.177 C 
ATOM     24  O   UNL     1       3.016   7.530  -5.781  0.00  0.00    -0.218 OA
BRANCH  23  25
ATOM     25  C   UNL     1       3.424   5.498  -4.736  0.00  0.00    +0.071 C 
BRANCH  25  26
ATOM     26  C   UNL     1       4.398   5.194  -3.405  0.00  0.00    +0.166 C 
ATOM     27  O   UNL     1       5.159   6.539  -3.453  0.00  0.00    -0.222 OA
BRANCH  26  28
ATOM     28  C   UNL     1       3.230   5.861  -2.393  0.00  0.00    +0.147 C 
BRANCH  28  30
ATOM     29  O   UNL     1       4.057   5.200  -0.375  0.00  0.00    -0.246 OA
ATOM     30  C   UNL     1       3.348   5.092  -1.148  0.00  0.00    +0.367 C 
ATOM     31  O   UNL     1       2.160   4.514  -0.690  0.00  0.00    -0.246 OA
ENDBRANCH  28  30
ENDBRANCH  26  28
ENDBRANCH  25  26
ENDBRANCH  23  25
ENDBRANCH  21  23
ENDBRANCH   1  22
TORSDOF 8
ENDMDL
MODEL 8
REMARK VINA RESULT:      -8.3      3.150      5.266
REMARK  Name = 
REMARK  8 active torsions:
REMARK  status: ('A' for Active; 'I' for Inactive)
REMARK    1  A    between atoms: C_2  and  C_4
REMARK    2  A    between atoms: C_4  and  C_5
REMARK    3  A    between atoms: C_5  and  C_7
REMARK    4  A    between atoms: C_7  and  C_8
REMARK    5  A    between atoms: C_8  and  C_10
REMARK    6  A    between atoms: C_11  and  C_12
REMARK    7  A    between atoms: C_13  and  C_14
REMARK    8  A    between atoms: C_24  and  C_25
REMARK                            x       y       z     vdW  Elec       q    Type
REMARK                         _______ _______ _______ _____ _____    ______ ____
ROOT
ATOM      1  C   UNL     1       1.960   6.187  -6.385  0.00  0.00    +0.013 A 
ATOM      2  C   UNL     1       1.545   6.312  -5.073  0.00  0.00    +0.003 A 
ATOM      3  C   UNL     1       2.380   6.080  -4.010  0.00  0.00    +0.018 A 
ATOM      4  C   UNL     1       3.668   5.683  -4.266  0.00  0.00    +0.081 A 
ATOM      5  C   UNL     1       4.435   5.274  -3.190  0.00  0.00    +0.019 A 
ATOM      6  C   UNL     1       4.012   5.641  -1.925  0.00  0.00    +0.002 A 
ATOM      7  C   UNL     1       2.931   6.494  -1.721  0.00  0.00    +0.000 A 
ATOM      8  N   UNL     1       4.107   5.683  -5.536  0.00  0.00    -0.250 NA
ATOM      9  C   UNL     1       2.046   6.585  -2.768  0.00  0.00    +0.001 A 
ATOM     10  C   UNL     1       3.256   5.770  -6.584  0.00  0.00    +0.059 A 
ENDROOT
BRANCH   2  11
ATOM     11  C   UNL     1       0.112   6.461  -4.839  0.00  0.00    +0.000 A 
ATOM     12  C   UNL     1      -0.508   7.671  -4.976  0.00  0.00    +0.002 A 
ATOM     13  C   UNL     1      -1.821   7.806  -4.547  0.00  0.00    +0.030 A 
ATOM     14  C   UNL     1      -2.442   6.740  -3.946  0.00  0.00    +0.140 A 
ATOM     15  F   UNL     1      -3.441   6.865  -3.030  0.00  0.00    -0.204 F 
ATOM     16  C   UNL     1      -2.011   5.485  -4.363  0.00  0.00    +0.030 A 
ATOM     17  C   UNL     1      -0.690   5.340  -4.684  0.00  0.00    +0.002 A 
ENDBRANCH   2  11
BRANCH  10  18
ATOM     18  C   UNL     1       3.633   5.154  -7.859  0.00  0.00    +0.040 C 
ATOM     19  C   UNL     1       5.017   4.789  -8.216  0.00  0.00    +0.006 C 
ATOM     20  C   UNL     1       4.394   5.975  -8.883  0.00  0.00    +0.006 C 
ENDBRANCH  10  18
BRANCH   1  22
ATOM     21  C   UNL     1       0.407   5.681  -8.196  0.00  0.00    +0.006 C 
ATOM     22  C   UNL     1       1.124   6.546  -7.495  0.00  0.00    -0.001 C 
BRANCH  21  23
ATOM     23  C   UNL     1       0.180   6.369  -9.682  0.00  0.00    +0.177 C 
ATOM     24  O   UNL     1       1.408   7.299  -9.477  0.00  0.00    -0.218 OA
BRANCH  23  25
ATOM     25  C   UNL     1       1.124   5.195 -10.416  0.00  0.00    +0.071 C 
BRANCH  25  26
ATOM     26  C   UNL     1       0.189   4.832 -11.761  0.00  0.00    +0.166 C 
ATOM     27  O   UNL     1      -0.484   6.220 -11.869  0.00  0.00    -0.222 OA
BRANCH  26  28
ATOM     28  C   UNL     1       1.440   5.331 -12.770  0.00  0.00    +0.147 C 
BRANCH  28  30
ATOM     29  O   UNL     1       0.840   3.698 -14.243  0.00  0.00    -0.246 OA
ATOM     30  C   UNL     1       1.142   4.691 -14.058  0.00  0.00    +0.367 C 
ATOM     31  O   UNL     1       0.733   5.560 -15.074  0.00  0.00    -0.246 OA
ENDBRANCH  28  30
ENDBRANCH  26  28
ENDBRANCH  25  26
ENDBRANCH  23  25
ENDBRANCH  21  23
ENDBRANCH   1  22
TORSDOF 8
ENDMDL
MODEL 9
REMARK VINA RESULT:      -8.1      3.005      5.132
REMARK  Name = 
REMARK  8 active torsions:
REMARK  status: ('A' for Active; 'I' for Inactive)
REMARK    1  A    between atoms: C_2  and  C_4
REMARK    2  A    between atoms: C_4  and  C_5
REMARK    3  A    between atoms: C_5  and  C_7
REMARK    4  A    between atoms: C_7  and  C_8
REMARK    5  A    between atoms: C_8  and  C_10
REMARK    6  A    between atoms: C_11  and  C_12
REMARK    7  A    between atoms: C_13  and  C_14
REMARK    8  A    between atoms: C_24  and  C_25
REMARK                            x       y       z     vdW  Elec       q    Type
REMARK                         _______ _______ _______ _____ _____    ______ ____
ROOT
ATOM      1  C   UNL     1       1.329   5.660  -7.291  0.00  0.00    +0.013 A 
ATOM      2  C   UNL     1       2.669   5.663  -6.958  0.00  0.00    +0.003 A 
ATOM      3  C   UNL     1       3.107   5.671  -5.659  0.00  0.00    +0.018 A 
ATOM      4  C   UNL     1       2.172   5.706  -4.655  0.00  0.00    +0.081 A 
ATOM      5  C   UNL     1       2.629   5.904  -3.364  0.00  0.00    +0.019 A 
ATOM      6  C   UNL     1       3.971   5.674  -3.117  0.00  0.00    +0.002 A 
ATOM      7  C   UNL     1       4.824   5.145  -4.081  0.00  0.00    +0.000 A 
ATOM      8  N   UNL     1       0.873   5.577  -4.974  0.00  0.00    -0.250 NA
ATOM      9  C   UNL     1       4.404   5.285  -5.381  0.00  0.00    +0.001 A 
ATOM     10  C   UNL     1       0.434   5.713  -6.246  0.00  0.00    +0.059 A 
ENDROOT
BRANCH   2  11
ATOM     11  C   UNL     1       3.623   5.906  -8.037  0.00  0.00    +0.000 A 
ATOM     12  C   UNL     1       3.492   6.982  -8.870  0.00  0.00    +0.002 A 
ATOM     13  C   UNL     1       4.296   7.059  -9.998  0.00  0.00    +0.030 A 
ATOM     14  C   UNL     1       5.158   6.028 -10.278  0.00  0.00    +0.140 A 
ATOM     15  F   UNL     1       5.565   5.704 -11.536  0.00  0.00    -0.204 F 
ATOM     16  C   UNL     1       5.639   5.335  -9.173  0.00  0.00    +0.030 A 
ATOM     17  C   UNL     1       4.800   5.176  -8.106  0.00  0.00    +0.002 A 
ENDBRANCH   2  11
BRANCH  10  18
ATOM     18  C   UNL     1      -0.929   6.194  -6.481  0.00  0.00    +0.040 C 
ATOM     19  C   UNL     1      -1.946   6.330  -5.420  0.00  0.00    +0.006 C 
ATOM     20  C   UNL     1      -2.084   5.214  -6.407  0.00  0.00    +0.006 C 
ENDBRANCH  10  18
BRANCH   1  22
ATOM     21  C   UNL     1       1.059   4.453  -9.393  0.00  0.00    +0.006 C 
ATOM     22  C   UNL     1       0.870   5.530  -8.644  0.00  0.00    -0.001 C 
BRANCH  21  23
ATOM     23  C   UNL     1       0.996   4.968 -10.962  0.00  0.00    +0.177 C 
ATOM     24  O   UNL     1      -0.380   4.278 -11.171  0.00  0.00    -0.218 OA
BRANCH  23  25
ATOM     25  C   UNL     1       0.265   6.406 -10.505  0.00  0.00    +0.071 C 
BRANCH  25  26
ATOM     26  C   UNL     1      -0.528   6.824 -11.924  0.00  0.00    +0.166 C 
ATOM     27  O   UNL     1      -0.641   8.333 -11.606  0.00  0.00    -0.222 OA
BRANCH  26  28
ATOM     28  C   UNL     1       0.953   7.068 -12.684  0.00  0.00    +0.147 C 
BRANCH  28  30
ATOM     29  O   UNL     1       0.355   7.762 -14.771  0.00  0.00    -0.246 OA
ATOM     30  C   UNL     1       0.642   6.986 -14.116  0.00  0.00    +0.367 C 
ATOM     31  O   UNL     1       1.246   5.925 -14.798  0.00  0.00    -0.246 OA
ENDBRANCH  28  30
ENDBRANCH  26  28
ENDBRANCH  25  26
ENDBRANCH  23  25
ENDBRANCH  21  23
ENDBRANCH   1  22
TORSDOF 8
ENDMDL
