MODEL 1
REMARK VINA RESULT:      -7.7      0.000      0.000
REMARK  Name = 
REMARK  5 active torsions:
REMARK  status: ('A' for Active; 'I' for Inactive)
REMARK    1  A    between atoms: O_2  and  C_3
REMARK    2  A    between atoms: C_8  and  S_9
REMARK    3  A    between atoms: S_9  and  C_11
REMARK    4  A    between atoms: C_11  and  C_12
REMARK    5  A    between atoms: C_17  and  O_18
REMARK                            x       y       z     vdW  Elec       q    Type
REMARK                         _______ _______ _______ _____ _____    ______ ____
ROOT
ATOM      1  S   UNL     1       4.084   5.063  -8.472  0.00  0.00    +0.107 S 
ATOM      2  O   UNL     1       3.755   3.650  -9.037  0.00  0.00    -0.248 OA
ENDROOT
BRANCH   1   8
ATOM      3  C   UNL     1      -1.018   6.674  -5.284  0.00  0.00    +0.140 A 
ATOM      4  C   UNL     1       0.296   7.055  -5.443  0.00  0.00    +0.058 A 
ATOM      5  C   UNL     1       1.005   6.485  -6.465  0.00  0.00    +0.104 A 
ATOM      6  C   UNL     1       0.327   5.809  -7.459  0.00  0.00    +0.101 A 
ATOM      7  N   UNL     1       1.289   5.418  -8.328  0.00  0.00    -0.218 NA
ATOM      8  C   UNL     1       2.490   5.481  -7.719  0.00  0.00    +0.221 A 
ATOM      9  C   UNL     1      -0.940   5.299  -7.198  0.00  0.00    +0.024 A 
ATOM     10  N   UNL     1       2.315   6.302  -6.672  0.00  0.00    -0.218 NA
ATOM     11  C   UNL     1      -1.645   5.761  -6.096  0.00  0.00    +0.039 A 
BRANCH   3  13
ATOM     12  C   UNL     1      -2.074   7.711  -3.966  0.00  0.00    +0.252 C 
ATOM     13  O   UNL     1      -1.761   7.406  -4.353  0.00  0.00    -0.471 OA
ENDBRANCH   3  13
ENDBRANCH   1   8
BRANCH   1  14
ATOM     14  C   UNL     1       3.991   6.058 -10.019  0.00  0.00    +0.145 C 
BRANCH  14  15
ATOM     15  C   UNL     1       5.353   6.005 -10.620  0.00  0.00    +0.072 A 
ATOM     16  C   UNL     1       5.462   5.621 -11.950  0.00  0.00    +0.026 A 
ATOM     17  C   UNL     1       4.324   5.080 -12.728  0.00  0.00    +0.035 C 
ATOM     18  C   UNL     1       6.689   5.682 -12.579  0.00  0.00    +0.133 A 
ATOM     19  C   UNL     1       7.770   6.041 -11.806  0.00  0.00    +0.031 A 
ATOM     20  C   UNL     1       9.129   5.822 -12.343  0.00  0.00    +0.036 C 
ATOM     21  C   UNL     1       7.569   6.634 -10.566  0.00  0.00    +0.097 A 
ATOM     22  N   UNL     1       6.381   6.540  -9.956  0.00  0.00    -0.248 NA
BRANCH  18  23
ATOM     23  O   UNL     1       6.774   5.785 -13.969  0.00  0.00    -0.472 OA
ATOM     24  C   UNL     1       6.579   7.045 -14.566  0.00  0.00    +0.252 C 
ENDBRANCH  18  23
ENDBRANCH  14  15
ENDBRANCH   1  14
TORSDOF 5
ENDMDL
MODEL 2
REMARK VINA RESULT:      -7.6      1.808      2.581
REMARK  Name = 
REMARK  5 active torsions:
REMARK  status: ('A' for Active; 'I' for Inactive)
REMARK    1  A    between atoms: O_2  and  C_3
REMARK    2  A    between atoms: C_8  and  S_9
REMARK    3  A    between atoms: S_9  and  C_11
REMARK    4  A    between atoms: C_11  and  C_12
REMARK    5  A    between atoms: C_17  and  O_18
REMARK                            x       y       z     vdW  Elec       q    Type
REMARK                         _______ _______ _______ _____ _____    ______ ____
ROOT
ATOM      1  S   UNL     1       1.939   5.391 -10.191  0.00  0.00    +0.107 S 
ATOM      2  O   UNL     1       1.402   6.763 -10.695  0.00  0.00    -0.248 OA
ENDROOT
BRANCH   1   8
ATOM      3  C   UNL     1      -1.255   5.571  -4.848  0.00  0.00    +0.140 A 
ATOM      4  C   UNL     1      -1.466   5.462  -6.205  0.00  0.00    +0.058 A 
ATOM      5  C   UNL     1      -0.374   5.257  -7.004  0.00  0.00    +0.104 A 
ATOM      6  C   UNL     1       0.817   4.868  -6.427  0.00  0.00    +0.101 A 
ATOM      7  N   UNL     1       1.666   4.702  -7.469  0.00  0.00    -0.218 NA
ATOM      8  C   UNL     1       1.168   5.332  -8.552  0.00  0.00    +0.221 A 
ATOM      9  C   UNL     1       1.052   5.145  -5.086  0.00  0.00    +0.024 A 
ATOM     10  N   UNL     1      -0.139   5.492  -8.301  0.00  0.00    -0.218 NA
ATOM     11  C   UNL     1      -0.016   5.481  -4.264  0.00  0.00    +0.039 A 
BRANCH   3  13
ATOM     12  C   UNL     1      -2.880   5.607  -3.713  0.00  0.00    +0.252 C 
ATOM     13  O   UNL     1      -2.403   5.596  -4.049  0.00  0.00    -0.471 OA
ENDBRANCH   3  13
ENDBRANCH   1   8
BRANCH   1  14
ATOM     14  C   UNL     1       3.658   5.866  -9.732  0.00  0.00    +0.145 C 
BRANCH  14  15
ATOM     15  C   UNL     1       4.444   5.825 -10.997  0.00  0.00    +0.072 A 
ATOM     16  C   UNL     1       5.822   5.693 -10.903  0.00  0.00    +0.026 A 
ATOM     17  C   UNL     1       6.555   5.788  -9.619  0.00  0.00    +0.035 C 
ATOM     18  C   UNL     1       6.571   5.522 -12.050  0.00  0.00    +0.133 A 
ATOM     19  C   UNL     1       5.900   5.586 -13.249  0.00  0.00    +0.031 A 
ATOM     20  C   UNL     1       6.685   5.721 -14.494  0.00  0.00    +0.036 C 
ATOM     21  C   UNL     1       4.515   5.482 -13.275  0.00  0.00    +0.097 A 
ATOM     22  N   UNL     1       3.801   5.680 -12.159  0.00  0.00    -0.248 NA
BRANCH  18  23
ATOM     23  O   UNL     1       7.829   4.915 -11.997  0.00  0.00    -0.472 OA
ATOM     24  C   UNL     1       8.974   5.729 -12.067  0.00  0.00    +0.252 C 
ENDBRANCH  18  23
ENDBRANCH  14  15
ENDBRANCH   1  14
TORSDOF 5
ENDMDL
MODEL 3
REMARK VINA RESULT:      -7.5      3.129      9.092
REMARK  Name = 
REMARK  5 active torsions:
REMARK  status: ('A' for Active; 'I' for Inactive)
REMARK    1  A    between atoms: O_2  and  C_3
REMARK    2  A    between atoms: C_8  and  S_9
REMARK    3  A    between atoms: S_9  and  C_11
REMARK    4  A    between atoms: C_11  and  C_12
REMARK    5  A    between atoms: C_17  and  O_18
REMARK                            x       y       z     vdW  Elec       q    Type
REMARK                         _______ _______ _______ _____ _____    ______ ____
ROOT
ATOM      1  S   UNL     1       2.686   5.975  -7.328  0.00  0.00    +0.107 S 
ATOM      2  O   UNL     1       2.957   4.487  -6.956  0.00  0.00    -0.248 OA
ENDROOT
BRANCH   1   8
ATOM      3  C   UNL     1       7.506   6.421 -11.246  0.00  0.00    +0.140 A 
ATOM      4  C   UNL     1       6.908   5.512 -10.401  0.00  0.00    +0.058 A 
ATOM      5  C   UNL     1       5.686   5.837  -9.879  0.00  0.00    +0.104 A 
ATOM      6  C   UNL     1       4.973   6.879 -10.434  0.00  0.00    +0.101 A 
ATOM      7  N   UNL     1       3.811   6.910  -9.740  0.00  0.00    -0.218 NA
ATOM      8  C   UNL     1       3.962   6.223  -8.590  0.00  0.00    +0.221 A 
ATOM      9  C   UNL     1       5.645   7.866 -11.146  0.00  0.00    +0.024 A 
ATOM     10  N   UNL     1       5.028   5.433  -8.785  0.00  0.00    -0.218 NA
ATOM     11  C   UNL     1       6.938   7.623 -11.589  0.00  0.00    +0.039 A 
BRANCH   3  13
ATOM     12  C   UNL     1       9.140   5.797 -12.179  0.00  0.00    +0.252 C 
ATOM     13  O   UNL     1       8.660   5.982 -11.902  0.00  0.00    -0.471 OA
ENDBRANCH   3  13
ENDBRANCH   1   8
BRANCH   1  14
ATOM     14  C   UNL     1       3.471   6.816  -5.891  0.00  0.00    +0.145 C 
BRANCH  14  15
ATOM     15  C   UNL     1       2.756   6.314  -4.684  0.00  0.00    +0.072 A 
ATOM     16  C   UNL     1       3.497   5.641  -3.722  0.00  0.00    +0.026 A 
ATOM     17  C   UNL     1       4.906   5.233  -3.931  0.00  0.00    +0.035 C 
ATOM     18  C   UNL     1       2.899   5.274  -2.534  0.00  0.00    +0.133 A 
ATOM     19  C   UNL     1       1.551   5.522  -2.411  0.00  0.00    +0.031 A 
ATOM     20  C   UNL     1       0.810   4.877  -1.306  0.00  0.00    +0.036 C 
ATOM     21  C   UNL     1       0.924   6.396  -3.290  0.00  0.00    +0.097 A 
ATOM     22  N   UNL     1       1.505   6.719  -4.452  0.00  0.00    -0.248 NA
BRANCH  18  23
ATOM     23  O   UNL     1       3.666   5.056  -1.387  0.00  0.00    -0.472 OA
ATOM     24  C   UNL     1       4.041   6.164  -0.605  0.00  0.00    +0.252 C 
ENDBRANCH  18  23
ENDBRANCH  14  15
ENDBRANCH   1  14
TORSDOF 5
ENDMDL
MODEL 4
REMARK VINA RESULT:      -7.5      2.493      2.920
REMARK  Name = 
REMARK  5 active torsions:
REMARK  status: ('A' for Active; 'I' for Inactive)
REMARK    1  A    between atoms: O_2  and  C_3
REMARK    2  A    between atoms: C_8  and  S_9
REMARK    3  A    between atoms: S_9  and  C_11
REMARK    4  A    between atoms: C_11  and  C_12
REMARK    5  A    between atoms: C_17  and  O_18
REMARK                            x       y       z     vdW  Elec       q    Type
REMARK                         _______ _______ _______ _____ _____    ______ ____
ROOT
ATOM      1  S   UNL     1       3.636   4.317  -8.999  0.00  0.00    +0.107 S 
ATOM      2  O   UNL     1       2.122   4.001  -9.182  0.00  0.00    -0.248 OA
ENDROOT
BRANCH   1   8
ATOM      3  C   UNL     1       2.858   6.585  -3.252  0.00  0.00    +0.140 A 
ATOM      4  C   UNL     1       2.492   5.503  -4.022  0.00  0.00    +0.058 A 
ATOM      5  C   UNL     1       3.112   5.345  -5.231  0.00  0.00    +0.104 A 
ATOM      6  C   UNL     1       4.261   6.061  -5.497  0.00  0.00    +0.101 A 
ATOM      7  N   UNL     1       4.648   5.648  -6.727  0.00  0.00    -0.218 NA
ATOM      8  C   UNL     1       3.610   5.043  -7.339  0.00  0.00    +0.221 A 
ATOM      9  C   UNL     1       4.508   7.240  -4.803  0.00  0.00    +0.024 A 
ATOM     10  N   UNL     1       2.764   4.705  -6.355  0.00  0.00    -0.218 NA
ATOM     11  C   UNL     1       3.808   7.500  -3.633  0.00  0.00    +0.039 A 
BRANCH   3  13
ATOM     12  C   UNL     1       2.130   6.627  -1.408  0.00  0.00    +0.252 C 
ATOM     13  O   UNL     1       2.341   6.615  -1.952  0.00  0.00    -0.471 OA
ENDBRANCH   3  13
ENDBRANCH   1   8
BRANCH   1  14
ATOM     14  C   UNL     1       3.774   5.840 -10.026  0.00  0.00    +0.145 C 
BRANCH  14  15
ATOM     15  C   UNL     1       5.146   5.819 -10.605  0.00  0.00    +0.072 A 
ATOM     16  C   UNL     1       5.276   5.564 -11.963  0.00  0.00    +0.026 A 
ATOM     17  C   UNL     1       4.144   5.123 -12.811  0.00  0.00    +0.035 C 
ATOM     18  C   UNL     1       6.516   5.662 -12.560  0.00  0.00    +0.133 A 
ATOM     19  C   UNL     1       7.587   5.924 -11.736  0.00  0.00    +0.031 A 
ATOM     20  C   UNL     1       8.953   5.731 -12.267  0.00  0.00    +0.036 C 
ATOM     21  C   UNL     1       7.371   6.398 -10.448  0.00  0.00    +0.097 A 
ATOM     22  N   UNL     1       6.169   6.268  -9.873  0.00  0.00    -0.248 NA
BRANCH  18  23
ATOM     23  O   UNL     1       6.631   5.898 -13.932  0.00  0.00    -0.472 OA
ATOM     24  C   UNL     1       6.460   7.211 -14.408  0.00  0.00    +0.252 C 
ENDBRANCH  18  23
ENDBRANCH  14  15
ENDBRANCH   1  14
TORSDOF 5
ENDMDL
MODEL 5
REMARK VINA RESULT:      -7.4      2.394      9.583
REMARK  Name = 
REMARK  5 active torsions:
REMARK  status: ('A' for Active; 'I' for Inactive)
REMARK    1  A    between atoms: O_2  and  C_3
REMARK    2  A    between atoms: C_8  and  S_9
REMARK    3  A    between atoms: S_9  and  C_11
REMARK    4  A    between atoms: C_11  and  C_12
REMARK    5  A    between atoms: C_17  and  O_18
REMARK                            x       y       z     vdW  Elec       q    Type
REMARK                         _______ _______ _______ _____ _____    ______ ____
ROOT
ATOM      1  S   UNL     1       0.857   5.148  -6.627  0.00  0.00    +0.107 S 
ATOM      2  O   UNL     1       1.282   3.803  -5.967  0.00  0.00    -0.248 OA
ENDROOT
BRANCH   1   8
ATOM      3  C   UNL     1       5.540   6.590 -10.471  0.00  0.00    +0.140 A 
ATOM      4  C   UNL     1       4.267   7.009 -10.147  0.00  0.00    +0.058 A 
ATOM      5  C   UNL     1       3.684   6.467  -9.035  0.00  0.00    +0.104 A 
ATOM      6  C   UNL     1       4.468   5.783  -8.129  0.00  0.00    +0.101 A 
ATOM      7  N   UNL     1       3.618   5.426  -7.138  0.00  0.00    -0.218 NA
ATOM      8  C   UNL     1       2.349   5.516  -7.586  0.00  0.00    +0.221 A 
ATOM      9  C   UNL     1       5.676   5.236  -8.545  0.00  0.00    +0.024 A 
ATOM     10  N   UNL     1       2.407   6.321  -8.657  0.00  0.00    -0.218 NA
ATOM     11  C   UNL     1       6.244   5.669  -9.736  0.00  0.00    +0.039 A 
BRANCH   3  13
ATOM     12  C   UNL     1       6.436   7.584 -11.933  0.00  0.00    +0.252 C 
ATOM     13  O   UNL     1       6.173   7.294 -11.501  0.00  0.00    -0.471 OA
ENDBRANCH   3  13
ENDBRANCH   1   8
BRANCH   1  14
ATOM     14  C   UNL     1       1.087   6.292  -5.203  0.00  0.00    +0.145 C 
BRANCH  14  15
ATOM     15  C   UNL     1      -0.235   6.365  -4.520  0.00  0.00    +0.072 A 
ATOM     16  C   UNL     1      -0.328   5.867  -3.228  0.00  0.00    +0.026 A 
ATOM     17  C   UNL     1       0.762   5.099  -2.580  0.00  0.00    +0.035 C 
ATOM     18  C   UNL     1      -1.499   6.031  -2.515  0.00  0.00    +0.133 A 
ATOM     19  C   UNL     1      -2.556   6.611  -3.179  0.00  0.00    +0.031 A 
ATOM     20  C   UNL     1      -3.903   6.527  -2.575  0.00  0.00    +0.036 C 
ATOM     21  C   UNL     1      -2.338   7.294  -4.369  0.00  0.00    +0.097 A 
ATOM     22  N   UNL     1      -1.209   7.101  -5.062  0.00  0.00    -0.248 NA
BRANCH  18  23
ATOM     23  O   UNL     1      -1.495   6.004  -1.119  0.00  0.00    -0.472 OA
ATOM     24  C   UNL     1      -1.167   7.181  -0.422  0.00  0.00    +0.252 C 
ENDBRANCH  18  23
ENDBRANCH  14  15
ENDBRANCH   1  14
TORSDOF 5
ENDMDL
MODEL 6
REMARK VINA RESULT:      -7.2      2.635      9.549
REMARK  Name = 
REMARK  5 active torsions:
REMARK  status: ('A' for Active; 'I' for Inactive)
REMARK    1  A    between atoms: O_2  and  C_3
REMARK    2  A    between atoms: C_8  and  S_9
REMARK    3  A    between atoms: S_9  and  C_11
REMARK    4  A    between atoms: C_11  and  C_12
REMARK    5  A    between atoms: C_17  and  O_18
REMARK                            x       y       z     vdW  Elec       q    Type
REMARK                         _______ _______ _______ _____ _____    ______ ____
ROOT
ATOM      1  S   UNL     1       3.007   5.727  -4.495  0.00  0.00    +0.107 S 
ATOM      2  O   UNL     1       2.873   7.239  -4.146  0.00  0.00    -0.248 OA
ENDROOT
BRANCH   1   8
ATOM      3  C   UNL     1       5.668   6.018 -10.117  0.00  0.00    +0.140 A 
ATOM      4  C   UNL     1       5.772   5.325  -8.931  0.00  0.00    +0.058 A 
ATOM      5  C   UNL     1       4.775   5.492  -8.008  0.00  0.00    +0.104 A 
ATOM      6  C   UNL     1       3.588   6.077  -8.398  0.00  0.00    +0.101 A 
ATOM      7  N   UNL     1       2.810   6.049  -7.290  0.00  0.00    -0.218 NA
ATOM      8  C   UNL     1       3.587   5.847  -6.207  0.00  0.00    +0.221 A 
ATOM      9  C   UNL     1       3.567   6.903  -9.516  0.00  0.00    +0.024 A 
ATOM     10  N   UNL     1       4.729   5.328  -6.680  0.00  0.00    -0.218 NA
ATOM     11  C   UNL     1       4.622   6.855 -10.417  0.00  0.00    +0.039 A 
BRANCH   3  13
ATOM     12  C   UNL     1       6.992   5.551 -11.517  0.00  0.00    +0.252 C 
ATOM     13  O   UNL     1       6.601   5.685 -11.105  0.00  0.00    -0.471 OA
ENDBRANCH   3  13
ENDBRANCH   1   8
BRANCH   1  14
ATOM     14  C   UNL     1       1.237   5.303  -4.773  0.00  0.00    +0.145 C 
BRANCH  14  15
ATOM     15  C   UNL     1       0.526   5.674  -3.517  0.00  0.00    +0.072 A 
ATOM     16  C   UNL     1      -0.563   6.529  -3.615  0.00  0.00    +0.026 A 
ATOM     17  C   UNL     1      -0.924   7.234  -4.868  0.00  0.00    +0.035 C 
ATOM     18  C   UNL     1      -1.325   6.795  -2.495  0.00  0.00    +0.133 A 
ATOM     19  C   UNL     1      -0.893   6.256  -1.305  0.00  0.00    +0.031 A 
ATOM     20  C   UNL     1      -1.482   6.758  -0.045  0.00  0.00    +0.036 C 
ATOM     21  C   UNL     1       0.047   5.234  -1.307  0.00  0.00    +0.097 A 
ATOM     22  N   UNL     1       0.798   5.008  -2.392  0.00  0.00    -0.248 NA
BRANCH  18  23
ATOM     23  O   UNL     1      -2.650   7.219  -2.617  0.00  0.00    -0.472 OA
ATOM     24  C   UNL     1      -3.657   6.249  -2.777  0.00  0.00    +0.252 C 
ENDBRANCH  18  23
ENDBRANCH  14  15
ENDBRANCH   1  14
TORSDOF 5
ENDMDL
MODEL 7
REMARK VINA RESULT:      -7.1      2.737      8.557
REMARK  Name = 
REMARK  5 active torsions:
REMARK  status: ('A' for Active; 'I' for Inactive)
REMARK    1  A    between atoms: O_2  and  C_3
REMARK    2  A    between atoms: C_8  and  S_9
REMARK    3  A    between atoms: S_9  and  C_11
REMARK    4  A    between atoms: C_11  and  C_12
REMARK    5  A    between atoms: C_17  and  O_18
REMARK                            x       y       z     vdW  Elec       q    Type
REMARK                         _______ _______ _______ _____ _____    ______ ____
ROOT
ATOM      1  S   UNL     1       2.059   6.608  -8.085  0.00  0.00    +0.107 S 
ATOM      2  O   UNL     1       0.868   5.895  -8.791  0.00  0.00    -0.248 OA
ENDROOT
BRANCH   1   8
ATOM      3  C   UNL     1       7.037   5.817 -11.741  0.00  0.00    +0.140 A 
ATOM      4  C   UNL     1       6.717   6.016 -10.416  0.00  0.00    +0.058 A 
ATOM      5  C   UNL     1       5.399   5.925 -10.059  0.00  0.00    +0.104 A 
ATOM      6  C   UNL     1       4.503   5.350 -10.937  0.00  0.00    +0.101 A 
ATOM      7  N   UNL     1       3.320   5.363 -10.279  0.00  0.00    -0.218 NA
ATOM      8  C   UNL     1       3.389   6.241  -9.258  0.00  0.00    +0.221 A 
ATOM      9  C   UNL     1       4.801   5.317 -12.295  0.00  0.00    +0.024 A 
ATOM     10  N   UNL     1       4.698   6.421  -9.032  0.00  0.00    -0.218 NA
ATOM     11  C   UNL     1       6.108   5.529 -12.710  0.00  0.00    +0.039 A 
BRANCH   3  13
ATOM     12  C   UNL     1       8.971   5.698 -12.159  0.00  0.00    +0.252 C 
ATOM     13  O   UNL     1       8.402   5.736 -12.036  0.00  0.00    -0.471 OA
ENDBRANCH   3  13
ENDBRANCH   1   8
BRANCH   1  14
ATOM     14  C   UNL     1       2.432   5.380  -6.764  0.00  0.00    +0.145 C 
BRANCH  14  15
ATOM     15  C   UNL     1       2.835   6.175  -5.570  0.00  0.00    +0.072 A 
ATOM     16  C   UNL     1       2.107   6.007  -4.401  0.00  0.00    +0.026 A 
ATOM     17  C   UNL     1       0.844   5.234  -4.343  0.00  0.00    +0.035 C 
ATOM     18  C   UNL     1       2.526   6.626  -3.241  0.00  0.00    +0.133 A 
ATOM     19  C   UNL     1       3.613   7.464  -3.339  0.00  0.00    +0.031 A 
ATOM     20  C   UNL     1       3.906   8.379  -2.215  0.00  0.00    +0.036 C 
ATOM     21  C   UNL     1       4.433   7.409  -4.459  0.00  0.00    +0.097 A 
ATOM     22  N   UNL     1       3.999   6.830  -5.586  0.00  0.00    -0.248 NA
BRANCH  18  23
ATOM     23  O   UNL     1       2.152   6.128  -1.991  0.00  0.00    -0.472 OA
ATOM     24  C   UNL     1       2.899   5.074  -1.433  0.00  0.00    +0.252 C 
ENDBRANCH  18  23
ENDBRANCH  14  15
ENDBRANCH   1  14
TORSDOF 5
ENDMDL
MODEL 8
REMARK VINA RESULT:      -7.1      2.178      8.542
REMARK  Name = 
REMARK  5 active torsions:
REMARK  status: ('A' for Active; 'I' for Inactive)
REMARK    1  A    between atoms: O_2  and  C_3
REMARK    2  A    between atoms: C_8  and  S_9
REMARK    3  A    between atoms: S_9  and  C_11
REMARK    4  A    between atoms: C_11  and  C_12
REMARK    5  A    between atoms: C_17  and  O_18
REMARK                            x       y       z     vdW  Elec       q    Type
REMARK                         _______ _______ _______ _____ _____    ______ ____
ROOT
ATOM      1  S   UNL     1       1.088   6.514  -9.539  0.00  0.00    +0.107 S 
ATOM      2  O   UNL     1       0.525   6.378 -10.985  0.00  0.00    -0.248 OA
ENDROOT
BRANCH   1   8
ATOM      3  C   UNL     1       6.995   5.776 -11.369  0.00  0.00    +0.140 A 
ATOM      4  C   UNL     1       5.796   6.270 -11.834  0.00  0.00    +0.058 A 
ATOM      5  C   UNL     1       4.770   6.399 -10.937  0.00  0.00    +0.104 A 
ATOM      6  C   UNL     1       5.045   6.330  -9.587  0.00  0.00    +0.101 A 
ATOM      7  N   UNL     1       3.853   6.543  -8.981  0.00  0.00    -0.218 NA
ATOM      8  C   UNL     1       2.861   6.344  -9.872  0.00  0.00    +0.221 A 
ATOM      9  C   UNL     1       6.193   5.677  -9.154  0.00  0.00    +0.024 A 
ATOM     10  N   UNL     1       3.440   6.447 -11.077  0.00  0.00    -0.218 NA
ATOM     11  C   UNL     1       7.210   5.414 -10.062  0.00  0.00    +0.039 A 
BRANCH   3  13
ATOM     12  C   UNL     1       8.519   5.851 -12.634  0.00  0.00    +0.252 C 
ATOM     13  O   UNL     1       8.068   5.829 -12.264  0.00  0.00    -0.471 OA
ENDBRANCH   3  13
ENDBRANCH   1   8
BRANCH   1  14
ATOM     14  C   UNL     1       0.711   4.834  -8.887  0.00  0.00    +0.145 C 
BRANCH  14  15
ATOM     15  C   UNL     1       0.208   5.039  -7.499  0.00  0.00    +0.072 A 
ATOM     16  C   UNL     1       1.080   4.793  -6.448  0.00  0.00    +0.026 A 
ATOM     17  C   UNL     1       2.405   4.158  -6.633  0.00  0.00    +0.035 C 
ATOM     18  C   UNL     1       0.694   5.093  -5.157  0.00  0.00    +0.133 A 
ATOM     19  C   UNL     1      -0.595   5.542  -4.979  0.00  0.00    +0.031 A 
ATOM     20  C   UNL     1      -1.149   5.577  -3.609  0.00  0.00    +0.036 C 
ATOM     21  C   UNL     1      -1.331   5.988  -6.070  0.00  0.00    +0.097 A 
ATOM     22  N   UNL     1      -0.959   5.663  -7.314  0.00  0.00    -0.248 NA
BRANCH  18  23
ATOM     23  O   UNL     1       1.648   5.329  -4.164  0.00  0.00    -0.472 OA
ATOM     24  C   UNL     1       2.210   6.615  -4.060  0.00  0.00    +0.252 C 
ENDBRANCH  18  23
ENDBRANCH  14  15
ENDBRANCH   1  14
TORSDOF 5
ENDMDL
MODEL 9
REMARK VINA RESULT:      -7.1      1.651      8.901
REMARK  Name = 
REMARK  5 active torsions:
REMARK  status: ('A' for Active; 'I' for Inactive)
REMARK    1  A    between atoms: O_2  and  C_3
REMARK    2  A    between atoms: C_8  and  S_9
REMARK    3  A    between atoms: S_9  and  C_11
REMARK    4  A    between atoms: C_11  and  C_12
REMARK    5  A    between atoms: C_17  and  O_18
REMARK                            x       y       z     vdW  Elec       q    Type
REMARK                         _______ _______ _______ _____ _____    ______ ____
ROOT
ATOM      1  S   UNL     1       4.016   5.915  -8.325  0.00  0.00    +0.107 S 
ATOM      2  O   UNL     1       2.962   7.007  -8.673  0.00  0.00    -0.248 OA
ENDROOT
BRANCH   1   8
ATOM      3  C   UNL     1       6.855   6.056 -13.865  0.00  0.00    +0.140 A 
ATOM      4  C   UNL     1       5.737   6.557 -13.235  0.00  0.00    +0.058 A 
ATOM      5  C   UNL     1       5.647   6.398 -11.879  0.00  0.00    +0.104 A 
ATOM      6  C   UNL     1       6.773   6.036 -11.168  0.00  0.00    +0.101 A 
ATOM      7  N   UNL     1       6.371   6.014  -9.875  0.00  0.00    -0.218 NA
ATOM      8  C   UNL     1       5.024   5.958  -9.829  0.00  0.00    +0.221 A 
ATOM      9  C   UNL     1       7.814   5.384 -11.819  0.00  0.00    +0.024 A 
ATOM     10  N   UNL     1       4.610   6.381 -11.032  0.00  0.00    -0.218 NA
ATOM     11  C   UNL     1       7.874   5.416 -13.205  0.00  0.00    +0.039 A 
BRANCH   3  13
ATOM     12  C   UNL     1       7.065   6.533 -15.778  0.00  0.00    +0.252 C 
ATOM     13  O   UNL     1       7.002   6.396 -15.215  0.00  0.00    -0.471 OA
ENDBRANCH   3  13
ENDBRANCH   1   8
BRANCH   1  14
ATOM     14  C   UNL     1       3.022   4.397  -8.634  0.00  0.00    +0.145 C 
BRANCH  14  15
ATOM     15  C   UNL     1       1.670   4.672  -8.071  0.00  0.00    +0.072 A 
ATOM     16  C   UNL     1       1.514   4.610  -6.693  0.00  0.00    +0.026 A 
ATOM     17  C   UNL     1       2.567   4.096  -5.786  0.00  0.00    +0.035 C 
ATOM     18  C   UNL     1       0.313   4.983  -6.125  0.00  0.00    +0.133 A 
ATOM     19  C   UNL     1      -0.709   5.314  -6.986  0.00  0.00    +0.031 A 
ATOM     20  C   UNL     1      -2.082   5.415  -6.449  0.00  0.00    +0.036 C 
ATOM     21  C   UNL     1      -0.431   5.585  -8.320  0.00  0.00    +0.097 A 
ATOM     22  N   UNL     1       0.728   5.191  -8.863  0.00  0.00    -0.248 NA
BRANCH  18  23
ATOM     23  O   UNL     1       0.252   5.400  -4.793  0.00  0.00    -0.472 OA
ATOM     24  C   UNL     1       0.592   6.730  -4.487  0.00  0.00    +0.252 C 
ENDBRANCH  18  23
ENDBRANCH  14  15
ENDBRANCH   1  14
TORSDOF 5
ENDMDL
