MODEL 1
REMARK VINA RESULT:      -6.6      0.000      0.000
REMARK  Name = 
REMARK  3 active torsions:
REMARK  status: ('A' for Active; 'I' for Inactive)
REMARK    1  A    between atoms: C_3  and  C_5
REMARK    2  A    between atoms: C_8  and  N_9
REMARK    3  A    between atoms: C_15  and  C_16
REMARK                            x       y       z     vdW  Elec       q    Type
REMARK                         _______ _______ _______ _____ _____    ______ ____
ROOT
ATOM      1  C   UNL     1       2.277   6.694  -5.203  0.00  0.00    +0.067 A 
ATOM      2  C   UNL     1       3.067   6.722  -4.062  0.00  0.00    +0.042 A 
ATOM      3  I   UNL     1       5.008   7.556  -4.118  0.00  0.00    -0.042 I 
ATOM      4  C   UNL     1       2.584   6.348  -2.823  0.00  0.00    +0.092 A 
ATOM      5  C   UNL     1       1.205   6.250  -2.693  0.00  0.00    +0.053 A 
ATOM      6  I   UNL     1       0.473   6.011  -0.738  0.00  0.00    -0.041 I 
ATOM      7  C   UNL     1       0.370   6.350  -3.801  0.00  0.00    +0.084 A 
ATOM      8  C   UNL     1       0.932   6.385  -5.070  0.00  0.00    +0.051 A 
ATOM      9  I   UNL     1      -0.083   5.574  -6.723  0.00  0.00    -0.041 I 
ENDROOT
BRANCH   1  12
ATOM     10  C   UNL     1       3.376   5.471  -8.576  0.00  0.00    +0.139 C 
ATOM     11  N   UNL     1       3.389   5.638  -7.138  0.00  0.00    -0.200 NA
ATOM     12  C   UNL     1       2.920   6.835  -6.515  0.00  0.00    +0.266 C 
ATOM     13  O   UNL     1       2.488   7.730  -7.265  0.00  0.00    -0.268 OA
ENDBRANCH   1  12
BRANCH   7  14
ATOM     14  N   UNL     1      -0.914   5.779  -3.680  0.00  0.00    -0.178 NA
ATOM     15  C   UNL     1      -2.037   6.617  -3.376  0.00  0.00    +0.246 C 
ATOM     16  O   UNL     1      -1.930   7.820  -3.690  0.00  0.00    -0.273 OA
ATOM     17  C   UNL     1      -3.345   5.897  -3.294  0.00  0.00    +0.097 C 
ENDBRANCH   7  14
BRANCH   4  18
ATOM     18  C   UNL     1       3.505   5.645  -1.920  0.00  0.00    +0.389 C 
ATOM     19  O   UNL     1       4.231   6.433  -1.032  0.00  0.00    -0.241 OA
ATOM     20  O   UNL     1       4.142   4.681  -2.442  0.00  0.00    -0.241 OA
ENDBRANCH   4  18
TORSDOF 3
ENDMDL
MODEL 2
REMARK VINA RESULT:      -6.4      1.683      4.653
REMARK  Name = 
REMARK  3 active torsions:
REMARK  status: ('A' for Active; 'I' for Inactive)
REMARK    1  A    between atoms: C_3  and  C_5
REMARK    2  A    between atoms: C_8  and  N_9
REMARK    3  A    between atoms: C_15  and  C_16
REMARK                            x       y       z     vdW  Elec       q    Type
REMARK                         _______ _______ _______ _____ _____    ______ ____
ROOT
ATOM      1  C   UNL     1       1.196   6.050  -5.315  0.00  0.00    +0.067 A 
ATOM      2  C   UNL     1      -0.148   6.093  -4.970  0.00  0.00    +0.042 A 
ATOM      3  I   UNL     1      -1.631   5.476  -6.343  0.00  0.00    -0.042 I 
ATOM      4  C   UNL     1      -0.570   6.395  -3.690  0.00  0.00    +0.092 A 
ATOM      5  C   UNL     1       0.389   6.342  -2.686  0.00  0.00    +0.053 A 
ATOM      6  I   UNL     1      -0.325   6.473  -0.715  0.00  0.00    -0.041 I 
ATOM      7  C   UNL     1       1.736   6.166  -2.987  0.00  0.00    +0.084 A 
ATOM      8  C   UNL     1       2.142   6.209  -4.314  0.00  0.00    +0.051 A 
ATOM      9  I   UNL     1       4.048   6.926  -4.836  0.00  0.00    -0.041 I 
ENDROOT
BRANCH   1  12
ATOM     10  C   UNL     1       2.657   7.437  -8.481  0.00  0.00    +0.139 C 
ATOM     11  N   UNL     1       1.695   7.246  -7.417  0.00  0.00    -0.200 NA
ATOM     12  C   UNL     1       1.563   5.997  -6.735  0.00  0.00    +0.266 C 
ATOM     13  O   UNL     1       2.322   5.076  -7.092  0.00  0.00    -0.268 OA
ENDBRANCH   1  12
BRANCH   7  14
ATOM     14  N   UNL     1       2.663   6.592  -2.014  0.00  0.00    -0.178 NA
ATOM     15  C   UNL     1       3.400   5.618  -1.263  0.00  0.00    +0.246 C 
ATOM     16  O   UNL     1       3.547   4.501  -1.799  0.00  0.00    -0.273 OA
ATOM     17  C   UNL     1       4.366   6.196  -0.277  0.00  0.00    +0.097 C 
ENDBRANCH   7  14
BRANCH   4  18
ATOM     18  C   UNL     1      -1.802   7.182  -3.550  0.00  0.00    +0.389 C 
ATOM     19  O   UNL     1      -2.990   6.467  -3.443  0.00  0.00    -0.241 OA
ATOM     20  O   UNL     1      -1.857   8.231  -4.262  0.00  0.00    -0.241 OA
ENDBRANCH   4  18
TORSDOF 3
ENDMDL
MODEL 3
REMARK VINA RESULT:      -6.3      4.735      9.194
REMARK  Name = 
REMARK  3 active torsions:
REMARK  status: ('A' for Active; 'I' for Inactive)
REMARK    1  A    between atoms: C_3  and  C_5
REMARK    2  A    between atoms: C_8  and  N_9
REMARK    3  A    between atoms: C_15  and  C_16
REMARK                            x       y       z     vdW  Elec       q    Type
REMARK                         _______ _______ _______ _____ _____    ______ ____
ROOT
ATOM      1  C   UNL     1       2.154   6.457 -10.017  0.00  0.00    +0.067 A 
ATOM      2  C   UNL     1       1.552   6.421 -11.267  0.00  0.00    +0.042 A 
ATOM      3  I   UNL     1      -0.392   7.201 -11.546  0.00  0.00    -0.042 I 
ATOM      4  C   UNL     1       2.230   6.017 -12.399  0.00  0.00    +0.092 A 
ATOM      5  C   UNL     1       3.615   5.953 -12.310  0.00  0.00    +0.053 A 
ATOM      6  I   UNL     1       4.648   5.665 -14.116  0.00  0.00    -0.041 I 
ATOM      7  C   UNL     1       4.265   6.117 -11.091  0.00  0.00    +0.084 A 
ATOM      8  C   UNL     1       3.510   6.182  -9.927  0.00  0.00    +0.051 A 
ATOM      9  I   UNL     1       4.272   5.461  -8.105  0.00  0.00    -0.041 I 
ENDROOT
BRANCH   1  12
ATOM     10  C   UNL     1       0.539   5.313  -6.829  0.00  0.00    +0.139 C 
ATOM     11  N   UNL     1       0.754   5.443  -8.254  0.00  0.00    -0.200 NA
ATOM     12  C   UNL     1       1.312   6.627  -8.827  0.00  0.00    +0.266 C 
ATOM     13  O   UNL     1       1.617   7.544  -8.042  0.00  0.00    -0.268 OA
ENDBRANCH   1  12
BRANCH   7  14
ATOM     14  N   UNL     1       5.564   5.580 -10.988  0.00  0.00    -0.178 NA
ATOM     15  C   UNL     1       6.701   6.440 -11.138  0.00  0.00    +0.246 C 
ATOM     16  O   UNL     1       6.518   7.647 -10.884  0.00  0.00    -0.273 OA
ATOM     17  C   UNL     1       8.022   5.754 -10.987  0.00  0.00    +0.097 C 
ENDBRANCH   7  14
BRANCH   4  18
ATOM     18  C   UNL     1       1.478   5.256 -13.406  0.00  0.00    +0.389 C 
ATOM     19  O   UNL     1       0.964   5.977 -14.478  0.00  0.00    -0.241 OA
ATOM     20  O   UNL     1       0.721   4.350 -12.942  0.00  0.00    -0.241 OA
ENDBRANCH   4  18
TORSDOF 3
ENDMDL
MODEL 4
REMARK VINA RESULT:      -6.2      2.152      4.523
REMARK  Name = 
REMARK  3 active torsions:
REMARK  status: ('A' for Active; 'I' for Inactive)
REMARK    1  A    between atoms: C_3  and  C_5
REMARK    2  A    between atoms: C_8  and  N_9
REMARK    3  A    between atoms: C_15  and  C_16
REMARK                            x       y       z     vdW  Elec       q    Type
REMARK                         _______ _______ _______ _____ _____    ______ ____
ROOT
ATOM      1  C   UNL     1       2.057   5.684  -2.504  0.00  0.00    +0.067 A 
ATOM      2  C   UNL     1       2.431   5.579  -3.837  0.00  0.00    +0.042 A 
ATOM      3  I   UNL     1       4.277   4.699  -4.371  0.00  0.00    -0.042 I 
ATOM      4  C   UNL     1       1.572   5.902  -4.869  0.00  0.00    +0.092 A 
ATOM      5  C   UNL     1       0.226   6.029  -4.547  0.00  0.00    +0.053 A 
ATOM      6  I   UNL     1      -1.102   6.188  -6.167  0.00  0.00    -0.041 I 
ATOM      7  C   UNL     1      -0.201   6.005  -3.224  0.00  0.00    +0.084 A 
ATOM      8  C   UNL     1       0.745   6.019  -2.208  0.00  0.00    +0.051 A 
ATOM      9  I   UNL     1       0.332   6.936  -0.362  0.00  0.00    -0.041 I 
ENDROOT
BRANCH   1  12
ATOM     10  C   UNL     1       4.231   7.054   0.230  0.00  0.00    +0.139 C 
ATOM     11  N   UNL     1       3.767   6.801  -1.117  0.00  0.00    -0.200 NA
ATOM     12  C   UNL     1       3.092   5.592  -1.467  0.00  0.00    +0.266 C 
ATOM     13  O   UNL     1       2.911   4.763  -0.556  0.00  0.00    -0.268 OA
ENDBRANCH   1  12
BRANCH   7  14
ATOM     14  N   UNL     1      -1.450   6.601  -2.952  0.00  0.00    -0.178 NA
ATOM     15  C   UNL     1      -2.617   5.778  -2.832  0.00  0.00    +0.246 C 
ATOM     16  O   UNL     1      -2.425   4.589  -2.508  0.00  0.00    -0.273 OA
ATOM     17  C   UNL     1      -3.875   6.526  -2.522  0.00  0.00    +0.097 C 
ENDBRANCH   7  14
BRANCH   4  18
ATOM     18  C   UNL     1       2.152   6.536  -6.061  0.00  0.00    +0.389 C 
ATOM     19  O   UNL     1       2.434   5.701  -7.136  0.00  0.00    -0.241 OA
ATOM     20  O   UNL     1       3.013   7.437  -5.827  0.00  0.00    -0.241 OA
ENDBRANCH   4  18
TORSDOF 3
ENDMDL
MODEL 5
REMARK VINA RESULT:      -5.9      2.296      5.844
REMARK  Name = 
REMARK  3 active torsions:
REMARK  status: ('A' for Active; 'I' for Inactive)
REMARK    1  A    between atoms: C_3  and  C_5
REMARK    2  A    between atoms: C_8  and  N_9
REMARK    3  A    between atoms: C_15  and  C_16
REMARK                            x       y       z     vdW  Elec       q    Type
REMARK                         _______ _______ _______ _____ _____    ______ ____
ROOT
ATOM      1  C   UNL     1      -0.267   5.908  -3.398  0.00  0.00    +0.067 A 
ATOM      2  C   UNL     1      -0.217   5.660  -4.763  0.00  0.00    +0.042 A 
ATOM      3  I   UNL     1      -1.977   5.715  -5.931  0.00  0.00    -0.042 I 
ATOM      4  C   UNL     1       0.977   5.513  -5.440  0.00  0.00    +0.092 A 
ATOM      5  C   UNL     1       2.127   5.934  -4.783  0.00  0.00    +0.053 A 
ATOM      6  I   UNL     1       3.878   6.016  -5.939  0.00  0.00    -0.041 I 
ATOM      7  C   UNL     1       2.090   6.318  -3.447  0.00  0.00    +0.084 A 
ATOM      8  C   UNL     1       0.923   6.122  -2.719  0.00  0.00    +0.051 A 
ATOM      9  I   UNL     1       0.993   5.718  -0.657  0.00  0.00    -0.041 I 
ENDROOT
BRANCH   1  12
ATOM     10  C   UNL     1      -3.841   6.816  -2.707  0.00  0.00    +0.139 C 
ATOM     11  N   UNL     1      -2.399   6.930  -2.688  0.00  0.00    -0.200 NA
ATOM     12  C   UNL     1      -1.551   5.780  -2.699  0.00  0.00    +0.266 C 
ATOM     13  O   UNL     1      -2.110   4.668  -2.737  0.00  0.00    -0.268 OA
ENDBRANCH   1  12
BRANCH   7  14
ATOM     14  N   UNL     1       3.308   6.266  -2.739  0.00  0.00    -0.178 NA
ATOM     15  C   UNL     1       3.998   7.483  -2.424  0.00  0.00    +0.246 C 
ATOM     16  O   UNL     1       3.299   8.514  -2.361  0.00  0.00    -0.273 OA
ATOM     17  C   UNL     1       5.266   7.295  -1.653  0.00  0.00    +0.097 C 
ENDBRANCH   7  14
BRANCH   4  18
ATOM     18  C   UNL     1       1.020   4.534  -6.535  0.00  0.00    +0.389 C 
ATOM     19  O   UNL     1       1.722   3.358  -6.292  0.00  0.00    -0.241 OA
ATOM     20  O   UNL     1       1.162   5.027  -7.695  0.00  0.00    -0.241 OA
ENDBRANCH   4  18
TORSDOF 3
ENDMDL
MODEL 6
REMARK VINA RESULT:      -5.9      2.092      5.264
REMARK  Name = 
REMARK  3 active torsions:
REMARK  status: ('A' for Active; 'I' for Inactive)
REMARK    1  A    between atoms: C_3  and  C_5
REMARK    2  A    between atoms: C_8  and  N_9
REMARK    3  A    between atoms: C_15  and  C_16
REMARK                            x       y       z     vdW  Elec       q    Type
REMARK                         _______ _______ _______ _____ _____    ______ ____
ROOT
ATOM      1  C   UNL     1       1.080   6.215  -3.004  0.00  0.00    +0.067 A 
ATOM      2  C   UNL     1      -0.259   6.340  -2.660  0.00  0.00    +0.042 A 
ATOM      3  I   UNL     1      -0.819   7.173  -0.800  0.00  0.00    -0.042 I 
ATOM      4  C   UNL     1      -1.277   6.069  -3.554  0.00  0.00    +0.092 A 
ATOM      5  C   UNL     1      -0.924   5.977  -4.895  0.00  0.00    +0.053 A 
ATOM      6  I   UNL     1      -2.513   5.899  -6.266  0.00  0.00    -0.041 I 
ATOM      7  C   UNL     1       0.409   5.983  -5.289  0.00  0.00    +0.084 A 
ATOM      8  C   UNL     1       1.401   5.914  -4.319  0.00  0.00    +0.051 A 
ATOM      9  I   UNL     1       3.235   4.966  -4.716  0.00  0.00    -0.041 I 
ENDROOT
BRANCH   1  12
ATOM     10  C   UNL     1       3.871   4.777  -0.949  0.00  0.00    +0.139 C 
ATOM     11  N   UNL     1       2.516   4.993  -1.411  0.00  0.00    -0.200 NA
ATOM     12  C   UNL     1       2.092   6.249  -1.942  0.00  0.00    +0.266 C 
ATOM     13  O   UNL     1       2.945   7.154  -1.999  0.00  0.00    -0.268 OA
ENDBRANCH   1  12
BRANCH   7  14
ATOM     14  N   UNL     1       0.699   5.420  -6.549  0.00  0.00    -0.178 NA
ATOM     15  C   UNL     1       1.089   6.273  -7.633  0.00  0.00    +0.246 C 
ATOM     16  O   UNL     1       1.601   7.366  -7.320  0.00  0.00    -0.273 OA
ATOM     17  C   UNL     1       1.389   5.555  -8.911  0.00  0.00    +0.097 C 
ENDBRANCH   7  14
BRANCH   4  18
ATOM     18  C   UNL     1      -2.497   5.446  -3.024  0.00  0.00    +0.389 C 
ATOM     19  O   UNL     1      -3.616   6.264  -2.911  0.00  0.00    -0.241 OA
ATOM     20  O   UNL     1      -2.316   4.632  -2.068  0.00  0.00    -0.241 OA
ENDBRANCH   4  18
TORSDOF 3
ENDMDL
MODEL 7
REMARK VINA RESULT:      -5.7      4.854      8.347
REMARK  Name = 
REMARK  3 active torsions:
REMARK  status: ('A' for Active; 'I' for Inactive)
REMARK    1  A    between atoms: C_3  and  C_5
REMARK    2  A    between atoms: C_8  and  N_9
REMARK    3  A    between atoms: C_15  and  C_16
REMARK                            x       y       z     vdW  Elec       q    Type
REMARK                         _______ _______ _______ _____ _____    ______ ____
ROOT
ATOM      1  C   UNL     1       2.938   5.711  -9.727  0.00  0.00    +0.067 A 
ATOM      2  C   UNL     1       4.319   5.721  -9.865  0.00  0.00    +0.042 A 
ATOM      3  I   UNL     1       5.561   5.022  -8.305  0.00  0.00    -0.042 I 
ATOM      4  C   UNL     1       4.937   6.044 -11.057  0.00  0.00    +0.092 A 
ATOM      5  C   UNL     1       4.140   6.047 -12.195  0.00  0.00    +0.053 A 
ATOM      6  I   UNL     1       5.147   6.209 -14.031  0.00  0.00    -0.041 I 
ATOM      7  C   UNL     1       2.759   5.905 -12.105  0.00  0.00    +0.084 A 
ATOM      8  C   UNL     1       2.158   5.925 -10.853  0.00  0.00    +0.051 A 
ATOM      9  I   UNL     1       0.215   6.687 -10.601  0.00  0.00    -0.041 I 
ENDROOT
BRANCH   1  12
ATOM     10  C   UNL     1       2.134   3.988  -6.492  0.00  0.00    +0.139 C 
ATOM     11  N   UNL     1       2.028   4.329  -7.895  0.00  0.00    -0.200 NA
ATOM     12  C   UNL     1       2.359   5.631  -8.380  0.00  0.00    +0.266 C 
ATOM     13  O   UNL     1       2.755   6.463  -7.542  0.00  0.00    -0.268 OA
ENDBRANCH   1  12
BRANCH   7  14
ATOM     14  N   UNL     1       2.001   6.385 -13.193  0.00  0.00    -0.178 NA
ATOM     15  C   UNL     1       1.320   5.457 -14.047  0.00  0.00    +0.246 C 
ATOM     16  O   UNL     1       1.037   4.350 -13.546  0.00  0.00    -0.273 OA
ATOM     17  C   UNL     1       0.535   6.090 -15.151  0.00  0.00    +0.097 C 
ENDBRANCH   7  14
BRANCH   4  18
ATOM     18  C   UNL     1       6.197   6.796 -10.986  0.00  0.00    +0.389 C 
ATOM     19  O   UNL     1       6.133   8.151 -11.295  0.00  0.00    -0.241 OA
ATOM     20  O   UNL     1       7.217   6.182 -11.423  0.00  0.00    -0.241 OA
ENDBRANCH   4  18
TORSDOF 3
ENDMDL
MODEL 8
REMARK VINA RESULT:      -5.5      1.902      4.937
REMARK  Name = 
REMARK  3 active torsions:
REMARK  status: ('A' for Active; 'I' for Inactive)
REMARK    1  A    between atoms: C_3  and  C_5
REMARK    2  A    between atoms: C_8  and  N_9
REMARK    3  A    between atoms: C_15  and  C_16
REMARK                            x       y       z     vdW  Elec       q    Type
REMARK                         _______ _______ _______ _____ _____    ______ ____
ROOT
ATOM      1  C   UNL     1       0.060   5.715  -3.170  0.00  0.00    +0.067 A 
ATOM      2  C   UNL     1       1.119   6.039  -2.333  0.00  0.00    +0.042 A 
ATOM      3  I   UNL     1       0.864   6.067  -0.236  0.00  0.00    -0.042 I 
ATOM      4  C   UNL     1       2.404   6.215  -2.807  0.00  0.00    +0.092 A 
ATOM      5  C   UNL     1       2.668   5.746  -4.088  0.00  0.00    +0.053 A 
ATOM      6  I   UNL     1       4.688   5.715  -4.665  0.00  0.00    -0.041 I 
ATOM      7  C   UNL     1       1.645   5.286  -4.910  0.00  0.00    +0.084 A 
ATOM      8  C   UNL     1       0.327   5.451  -4.505  0.00  0.00    +0.051 A 
ATOM      9  I   UNL     1      -1.208   5.736  -5.913  0.00  0.00    -0.041 I 
ENDROOT
BRANCH   1  12
ATOM     10  C   UNL     1      -3.435   7.077  -3.104  0.00  0.00    +0.139 C 
ATOM     11  N   UNL     1      -2.004   7.039  -2.891  0.00  0.00    -0.200 NA
ATOM     12  C   UNL     1      -1.310   5.814  -2.652  0.00  0.00    +0.266 C 
ATOM     13  O   UNL     1      -1.991   4.772  -2.644  0.00  0.00    -0.268 OA
ENDBRANCH   1  12
BRANCH   7  14
ATOM     14  N   UNL     1       1.898   5.286  -6.297  0.00  0.00    -0.178 NA
ATOM     15  C   UNL     1       2.311   4.075  -6.943  0.00  0.00    +0.246 C 
ATOM     16  O   UNL     1       1.983   3.010  -6.382  0.00  0.00    -0.273 OA
ATOM     17  C   UNL     1       2.528   4.201  -8.418  0.00  0.00    +0.097 C 
ENDBRANCH   7  14
BRANCH   4  18
ATOM     18  C   UNL     1       3.225   7.254  -2.173  0.00  0.00    +0.389 C 
ATOM     19  O   UNL     1       3.552   8.356  -2.957  0.00  0.00    -0.241 OA
ATOM     20  O   UNL     1       4.151   6.826  -1.418  0.00  0.00    -0.241 OA
ENDBRANCH   4  18
TORSDOF 3
ENDMDL
MODEL 9
REMARK VINA RESULT:      -5.5      6.234      9.343
REMARK  Name = 
REMARK  3 active torsions:
REMARK  status: ('A' for Active; 'I' for Inactive)
REMARK    1  A    between atoms: C_3  and  C_5
REMARK    2  A    between atoms: C_8  and  N_9
REMARK    3  A    between atoms: C_15  and  C_16
REMARK                            x       y       z     vdW  Elec       q    Type
REMARK                         _______ _______ _______ _____ _____    ______ ____
ROOT
ATOM      1  C   UNL     1       3.120   5.674 -12.619  0.00  0.00    +0.067 A 
ATOM      2  C   UNL     1       2.569   5.528 -11.354  0.00  0.00    +0.042 A 
ATOM      3  I   UNL     1       0.600   4.798 -11.116  0.00  0.00    -0.042 I 
ATOM      4  C   UNL     1       3.311   5.707 -10.203  0.00  0.00    +0.092 A 
ATOM      5  C   UNL     1       4.693   5.724 -10.345  0.00  0.00    +0.053 A 
ATOM      6  I   UNL     1       5.808   5.662  -8.566  0.00  0.00    -0.041 I 
ATOM      7  C   UNL     1       5.285   5.737 -11.603  0.00  0.00    +0.084 A 
ATOM      8  C   UNL     1       4.484   5.900 -12.726  0.00  0.00    +0.051 A 
ATOM      9  I   UNL     1       5.211   6.879 -14.438  0.00  0.00    -0.041 I 
ENDROOT
BRANCH   1  12
ATOM     10  C   UNL     1       1.392   7.419 -15.456  0.00  0.00    +0.139 C 
ATOM     11  N   UNL     1       1.665   7.018 -14.092  0.00  0.00    -0.200 NA
ATOM     12  C   UNL     1       2.225   5.741 -13.780  0.00  0.00    +0.266 C 
ATOM     13  O   UNL     1       2.479   4.987 -14.738  0.00  0.00    -0.268 OA
ENDBRANCH   1  12
BRANCH   7  14
ATOM     14  N   UNL     1       6.606   6.226 -11.677  0.00  0.00    -0.178 NA
ATOM     15  C   UNL     1       7.668   5.344 -12.063  0.00  0.00    +0.246 C 
ATOM     16  O   UNL     1       7.344   4.356 -12.752  0.00  0.00    -0.273 OA
ATOM     17  C   UNL     1       9.018   5.988 -12.122  0.00  0.00    +0.097 C 
ENDBRANCH   7  14
BRANCH   4  18
ATOM     18  C   UNL     1       2.638   6.323  -9.051  0.00  0.00    +0.389 C 
ATOM     19  O   UNL     1       2.104   5.456  -8.104  0.00  0.00    -0.241 OA
ATOM     20  O   UNL     1       1.932   7.342  -9.320  0.00  0.00    -0.241 OA
ENDBRANCH   4  18
TORSDOF 3
ENDMDL
