MODEL 1
REMARK VINA RESULT:      -8.5      0.000      0.000
REMARK  Name = 
REMARK  2 active torsions:
REMARK  status: ('A' for Active; 'I' for Inactive)
REMARK    1  A    between atoms: C_2  and  C_3
REMARK    2  A    between atoms: C_22  and  C_23
REMARK                            x       y       z     vdW  Elec       q    Type
REMARK                         _______ _______ _______ _____ _____    ______ ____
ROOT
ATOM      1  C   UNL     1       1.168   5.655  -7.329  0.00  0.00    +0.180 C 
ATOM      2  C   UNL     1       2.404   5.968  -8.157  0.00  0.00    +0.037 C 
ATOM      3  C   UNL     1       1.649   7.072  -9.049  0.00  0.00    +0.003 C 
ATOM      4  C   UNL     1       2.544   7.060 -10.494  0.00  0.00    +0.001 C 
ATOM      5  C   UNL     1       4.040   6.926  -9.732  0.00  0.00    +0.004 C 
ATOM      6  C   UNL     1       4.204   5.330  -9.650  0.00  0.00    +0.000 C 
ATOM      7  C   UNL     1       4.820   7.214 -11.213  0.00  0.00    +0.019 C 
ATOM      8  C   UNL     1       4.573   5.793 -11.898  0.00  0.00    -0.043 C 
ATOM      9  C   UNL     1       5.527   5.358 -12.703  0.00  0.00    +0.010 C 
ATOM     10  C   UNL     1       6.907   5.808 -12.669  0.00  0.00    +0.101 C 
ATOM     11  C   UNL     1       7.174   6.984 -11.781  0.00  0.00    +0.050 C 
ATOM     12  N   UNL     1       7.898   4.985 -12.825  0.00  0.00    -0.034 NA
ATOM     13  O   UNL     1       9.175   5.274 -12.380  0.00  0.00    -0.143 OA
ATOM     14  C   UNL     1       3.162   5.519 -12.217  0.00  0.00    +0.022 C 
ATOM     15  C   UNL     1       6.256   6.784 -10.583  0.00  0.00    +0.010 C 
ATOM     16  C   UNL     1       2.298   5.545 -10.978  0.00  0.00    +0.004 C 
ATOM     17  C   UNL     1       0.491   6.038  -9.545  0.00  0.00    +0.004 C 
ATOM     18  C   UNL     1       3.107   4.927  -8.714  0.00  0.00    +0.003 C 
ATOM     19  C   UNL     1       0.049   5.405  -8.290  0.00  0.00    +0.043 C 
ATOM     20  O   UNL     1       0.868   6.854  -6.666  0.00  0.00    -0.212 OA
ENDROOT
BRANCH   1  22
ATOM     21  C   UNL     1       1.332   3.941  -5.792  0.00  0.00    -0.012 C 
ATOM     22  C   UNL     1       1.355   4.537  -6.383  0.00  0.00    -0.049 C 
ENDBRANCH   1  22
BRANCH   2  23
ATOM     23  C   UNL     1       3.286   6.760  -7.186  0.00  0.00    +0.003 C 
ATOM     24  C   UNL     1       4.256   5.810  -6.553  0.00  0.00    +0.000 C 
ENDBRANCH   2  23
TORSDOF 2
ENDMDL
MODEL 2
REMARK VINA RESULT:      -8.3      4.935      8.703
REMARK  Name = 
REMARK  2 active torsions:
REMARK  status: ('A' for Active; 'I' for Inactive)
REMARK    1  A    between atoms: C_2  and  C_3
REMARK    2  A    between atoms: C_22  and  C_23
REMARK                            x       y       z     vdW  Elec       q    Type
REMARK                         _______ _______ _______ _____ _____    ______ ____
ROOT
ATOM      1  C   UNL     1       1.478   5.683  -7.887  0.00  0.00    +0.180 C 
ATOM      2  C   UNL     1       1.087   5.758  -6.420  0.00  0.00    +0.037 C 
ATOM      3  C   UNL     1      -0.050   4.630  -6.563  0.00  0.00    +0.003 C 
ATOM      4  C   UNL     1      -1.122   5.018  -5.302  0.00  0.00    +0.001 C 
ATOM      5  C   UNL     1       0.093   5.388  -4.195  0.00  0.00    +0.004 C 
ATOM      6  C   UNL     1       0.293   6.959  -4.470  0.00  0.00    +0.000 C 
ATOM      7  C   UNL     1      -1.063   5.465  -2.953  0.00  0.00    +0.019 C 
ATOM      8  C   UNL     1      -1.729   6.867  -3.326  0.00  0.00    -0.043 C 
ATOM      9  C   UNL     1      -2.158   7.599  -2.313  0.00  0.00    +0.010 C 
ATOM     10  C   UNL     1      -1.694   7.468  -0.943  0.00  0.00    +0.101 C 
ATOM     11  C   UNL     1      -0.819   6.282  -0.675  0.00  0.00    +0.050 C 
ATOM     12  N   UNL     1      -1.482   8.504  -0.192  0.00  0.00    -0.034 NA
ATOM     13  O   UNL     1      -0.657   8.456   0.917  0.00  0.00    -0.143 OA
ATOM     14  C   UNL     1      -2.479   6.856  -4.592  0.00  0.00    +0.022 C 
ATOM     15  C   UNL     1       0.020   6.125  -1.935  0.00  0.00    +0.010 C 
ATOM     16  C   UNL     1      -1.593   6.486  -5.759  0.00  0.00    +0.004 C 
ATOM     17  C   UNL     1      -0.852   5.431  -7.734  0.00  0.00    +0.004 C 
ATOM     18  C   UNL     1       0.835   6.989  -5.865  0.00  0.00    +0.003 C 
ATOM     19  C   UNL     1       0.216   5.792  -8.683  0.00  0.00    +0.043 C 
ATOM     20  O   UNL     1       1.954   4.376  -8.066  0.00  0.00    -0.212 OA
ENDROOT
BRANCH   1  22
ATOM     21  C   UNL     1       2.994   7.250  -8.645  0.00  0.00    -0.012 C 
ATOM     22  C   UNL     1       2.481   6.691  -8.286  0.00  0.00    -0.049 C 
ENDBRANCH   1  22
BRANCH   2  23
ATOM     23  C   UNL     1       2.258   5.070  -5.709  0.00  0.00    +0.003 C 
ATOM     24  C   UNL     1       3.235   6.126  -5.290  0.00  0.00    +0.000 C 
ENDBRANCH   2  23
TORSDOF 2
ENDMDL
MODEL 3
REMARK VINA RESULT:      -8.2      3.843      6.768
REMARK  Name = 
REMARK  2 active torsions:
REMARK  status: ('A' for Active; 'I' for Inactive)
REMARK    1  A    between atoms: C_2  and  C_3
REMARK    2  A    between atoms: C_22  and  C_23
REMARK                            x       y       z     vdW  Elec       q    Type
REMARK                         _______ _______ _______ _____ _____    ______ ____
ROOT
ATOM      1  C   UNL     1       1.334   5.972  -9.600  0.00  0.00    +0.180 C 
ATOM      2  C   UNL     1       1.441   6.015  -8.084  0.00  0.00    +0.037 C 
ATOM      3  C   UNL     1       2.309   7.368  -8.084  0.00  0.00    +0.003 C 
ATOM      4  C   UNL     1       3.174   7.257  -6.625  0.00  0.00    +0.001 C 
ATOM      5  C   UNL     1       1.879   6.640  -5.741  0.00  0.00    +0.004 C 
ATOM      6  C   UNL     1       2.085   5.061  -5.951  0.00  0.00    +0.000 C 
ATOM      7  C   UNL     1       2.760   6.850  -4.304  0.00  0.00    +0.019 C 
ATOM      8  C   UNL     1       3.777   5.629  -4.461  0.00  0.00    -0.043 C 
ATOM      9  C   UNL     1       4.151   5.032  -3.343  0.00  0.00    +0.010 C 
ATOM     10  C   UNL     1       3.414   5.079  -2.093  0.00  0.00    +0.101 C 
ATOM     11  C   UNL     1       2.266   6.040  -2.065  0.00  0.00    +0.050 C 
ATOM     12  N   UNL     1       3.292   4.035  -1.332  0.00  0.00    -0.034 NA
ATOM     13  O   UNL     1       2.278   3.916  -0.400  0.00  0.00    -0.143 OA
ATOM     14  C   UNL     1       4.737   5.787  -5.566  0.00  0.00    +0.022 C 
ATOM     15  C   UNL     1       1.673   5.981  -3.466  0.00  0.00    +0.010 C 
ATOM     16  C   UNL     1       4.035   5.925  -6.896  0.00  0.00    +0.004 C 
ATOM     17  C   UNL     1       3.477   6.749  -9.035  0.00  0.00    +0.004 C 
ATOM     18  C   UNL     1       1.843   4.883  -7.418  0.00  0.00    +0.003 C 
ATOM     19  C   UNL     1       2.720   6.138 -10.141  0.00  0.00    +0.043 C 
ATOM     20  O   UNL     1       0.628   7.134  -9.943  0.00  0.00    -0.212 OA
ENDROOT
BRANCH   1  22
ATOM     21  C   UNL     1       0.305   4.131 -10.536  0.00  0.00    -0.012 C 
ATOM     22  C   UNL     1       0.673   4.756 -10.115  0.00  0.00    -0.049 C 
ENDBRANCH   1  22
BRANCH   2  23
ATOM     23  C   UNL     1       0.033   6.432  -7.645  0.00  0.00    +0.003 C 
ATOM     24  C   UNL     1      -0.734   5.193  -7.294  0.00  0.00    +0.000 C 
ENDBRANCH   2  23
TORSDOF 2
ENDMDL
MODEL 4
REMARK VINA RESULT:      -8.0      4.206      6.651
REMARK  Name = 
REMARK  2 active torsions:
REMARK  status: ('A' for Active; 'I' for Inactive)
REMARK    1  A    between atoms: C_2  and  C_3
REMARK    2  A    between atoms: C_22  and  C_23
REMARK                            x       y       z     vdW  Elec       q    Type
REMARK                         _______ _______ _______ _____ _____    ______ ____
ROOT
ATOM      1  C   UNL     1      -0.458   6.234  -1.906  0.00  0.00    +0.180 C 
ATOM      2  C   UNL     1      -0.401   5.993  -3.406  0.00  0.00    +0.037 C 
ATOM      3  C   UNL     1       0.835   4.971  -3.296  0.00  0.00    +0.003 C 
ATOM      4  C   UNL     1       1.570   5.107  -4.823  0.00  0.00    +0.001 C 
ATOM      5  C   UNL     1       0.116   5.173  -5.672  0.00  0.00    +0.004 C 
ATOM      6  C   UNL     1      -0.158   6.756  -5.694  0.00  0.00    +0.000 C 
ATOM      7  C   UNL     1       0.964   5.014  -7.135  0.00  0.00    +0.019 C 
ATOM      8  C   UNL     1       1.568   6.488  -7.228  0.00  0.00    -0.043 C 
ATOM      9  C   UNL     1       1.701   6.991  -8.443  0.00  0.00    +0.010 C 
ATOM     10  C   UNL     1       0.965   6.538  -9.611  0.00  0.00    +0.101 C 
ATOM     11  C   UNL     1       0.162   5.289  -9.414  0.00  0.00    +0.050 C 
ATOM     12  N   UNL     1       0.504   7.370 -10.492  0.00  0.00    -0.034 NA
ATOM     13  O   UNL     1      -0.533   7.043 -11.346  0.00  0.00    -0.143 OA
ATOM     14  C   UNL     1       2.573   6.790  -6.195  0.00  0.00    +0.022 C 
ATOM     15  C   UNL     1      -0.367   5.386  -7.991  0.00  0.00    +0.010 C 
ATOM     16  C   UNL     1       1.997   6.658  -4.805  0.00  0.00    +0.004 C 
ATOM     17  C   UNL     1       1.797   6.044  -2.536  0.00  0.00    +0.004 C 
ATOM     18  C   UNL     1      -0.386   7.077  -4.250  0.00  0.00    +0.003 C 
ATOM     19  C   UNL     1       0.933   6.567  -1.464  0.00  0.00    +0.043 C 
ATOM     20  O   UNL     1      -0.766   4.983  -1.353  0.00  0.00    -0.212 OA
ENDROOT
BRANCH   1  22
ATOM     21  C   UNL     1      -1.943   7.829  -1.146  0.00  0.00    -0.012 C 
ATOM     22  C   UNL     1      -1.435   7.266  -1.507  0.00  0.00    -0.049 C 
ENDBRANCH   1  22
BRANCH   2  23
ATOM     23  C   UNL     1      -1.633   5.119  -3.668  0.00  0.00    +0.003 C 
ATOM     24  C   UNL     1      -2.763   6.013  -4.076  0.00  0.00    +0.000 C 
ENDBRANCH   2  23
TORSDOF 2
ENDMDL
MODEL 5
REMARK VINA RESULT:      -7.8      4.869      7.577
REMARK  Name = 
REMARK  2 active torsions:
REMARK  status: ('A' for Active; 'I' for Inactive)
REMARK    1  A    between atoms: C_2  and  C_3
REMARK    2  A    between atoms: C_22  and  C_23
REMARK                            x       y       z     vdW  Elec       q    Type
REMARK                         _______ _______ _______ _____ _____    ______ ____
ROOT
ATOM      1  C   UNL     1       0.985   5.603  -7.362  0.00  0.00    +0.180 C 
ATOM      2  C   UNL     1       1.601   6.166  -6.092  0.00  0.00    +0.037 C 
ATOM      3  C   UNL     1       3.036   6.407  -6.775  0.00  0.00    +0.003 C 
ATOM      4  C   UNL     1       4.097   6.337  -5.449  0.00  0.00    +0.001 C 
ATOM      5  C   UNL     1       3.084   7.195  -4.413  0.00  0.00    +0.004 C 
ATOM      6  C   UNL     1       2.231   6.002  -3.757  0.00  0.00    +0.000 C 
ATOM      7  C   UNL     1       4.339   7.303  -3.274  0.00  0.00    +0.019 C 
ATOM      8  C   UNL     1       4.310   5.800  -2.736  0.00  0.00    -0.043 C 
ATOM      9  C   UNL     1       4.610   5.629  -1.461  0.00  0.00    +0.010 C 
ATOM     10  C   UNL     1       4.520   6.662  -0.444  0.00  0.00    +0.101 C 
ATOM     11  C   UNL     1       4.256   8.043  -0.959  0.00  0.00    +0.050 C 
ATOM     12  N   UNL     1       4.072   6.411   0.747  0.00  0.00    -0.034 NA
ATOM     13  O   UNL     1       3.574   7.402   1.572  0.00  0.00    -0.143 OA
ATOM     14  C   UNL     1       4.734   4.799  -3.730  0.00  0.00    +0.022 C 
ATOM     15  C   UNL     1       3.313   7.846  -2.137  0.00  0.00    +0.010 C 
ATOM     16  C   UNL     1       3.850   4.826  -4.956  0.00  0.00    +0.004 C 
ATOM     17  C   UNL     1       3.205   4.849  -7.224  0.00  0.00    +0.004 C 
ATOM     18  C   UNL     1       1.453   5.467  -4.919  0.00  0.00    +0.003 C 
ATOM     19  C   UNL     1       1.915   4.545  -7.867  0.00  0.00    +0.043 C 
ATOM     20  O   UNL     1       1.037   6.657  -8.285  0.00  0.00    -0.212 OA
ENDROOT
BRANCH   1  22
ATOM     21  C   UNL     1      -1.212   4.926  -7.160  0.00  0.00    -0.012 C 
ATOM     22  C   UNL     1      -0.392   5.099  -7.182  0.00  0.00    -0.049 C 
ENDBRANCH   1  22
BRANCH   2  23
ATOM     23  C   UNL     1       0.963   7.556  -5.979  0.00  0.00    +0.003 C 
ATOM     24  C   UNL     1      -0.244   7.447  -5.100  0.00  0.00    +0.000 C 
ENDBRANCH   2  23
TORSDOF 2
ENDMDL
MODEL 6
REMARK VINA RESULT:      -7.7      2.082      3.445
REMARK  Name = 
REMARK  2 active torsions:
REMARK  status: ('A' for Active; 'I' for Inactive)
REMARK    1  A    between atoms: C_2  and  C_3
REMARK    2  A    between atoms: C_22  and  C_23
REMARK                            x       y       z     vdW  Elec       q    Type
REMARK                         _______ _______ _______ _____ _____    ______ ____
ROOT
ATOM      1  C   UNL     1       2.851   5.797  -7.477  0.00  0.00    +0.180 C 
ATOM      2  C   UNL     1       3.271   5.800  -8.938  0.00  0.00    +0.037 C 
ATOM      3  C   UNL     1       4.298   4.577  -8.749  0.00  0.00    +0.003 C 
ATOM      4  C   UNL     1       5.420   4.835 -10.000  0.00  0.00    +0.001 C 
ATOM      5  C   UNL     1       4.261   5.287 -11.136  0.00  0.00    +0.004 C 
ATOM      6  C   UNL     1       4.201   6.875 -10.902  0.00  0.00    +0.000 C 
ATOM      7  C   UNL     1       5.438   5.228 -12.360  0.00  0.00    +0.019 C 
ATOM      8  C   UNL     1       6.224   6.572 -12.007  0.00  0.00    -0.043 C 
ATOM      9  C   UNL     1       6.733   7.237 -13.029  0.00  0.00    +0.010 C 
ATOM     10  C   UNL     1       6.281   7.115 -14.404  0.00  0.00    +0.101 C 
ATOM     11  C   UNL     1       5.306   6.007 -14.659  0.00  0.00    +0.050 C 
ATOM     12  N   UNL     1       6.176   8.147 -15.182  0.00  0.00    -0.034 NA
ATOM     13  O   UNL     1       5.368   8.147 -16.304  0.00  0.00    -0.143 OA
ATOM     14  C   UNL     1       6.950   6.523 -10.728  0.00  0.00    +0.022 C 
ATOM     15  C   UNL     1       4.436   5.958 -13.411  0.00  0.00    +0.010 C 
ATOM     16  C   UNL     1       6.016   6.265  -9.568  0.00  0.00    +0.004 C 
ATOM     17  C   UNL     1       5.151   5.330  -7.583  0.00  0.00    +0.004 C 
ATOM     18  C   UNL     1       3.642   6.989  -9.517  0.00  0.00    +0.003 C 
ATOM     19  C   UNL     1       4.106   5.810  -6.662  0.00  0.00    +0.043 C 
ATOM     20  O   UNL     1       2.256   4.544  -7.277  0.00  0.00    -0.212 OA
ENDROOT
BRANCH   1  22
ATOM     21  C   UNL     1       1.440   7.484  -6.780  0.00  0.00    -0.012 C 
ATOM     22  C   UNL     1       1.939   6.902  -7.119  0.00  0.00    -0.049 C 
ENDBRANCH   1  22
BRANCH   2  23
ATOM     23  C   UNL     1       2.053   5.205  -9.654  0.00  0.00    +0.003 C 
ATOM     24  C   UNL     1       1.181   6.334 -10.110  0.00  0.00    +0.000 C 
ENDBRANCH   2  23
TORSDOF 2
ENDMDL
MODEL 7
REMARK VINA RESULT:      -7.7      3.674      5.577
REMARK  Name = 
REMARK  2 active torsions:
REMARK  status: ('A' for Active; 'I' for Inactive)
REMARK    1  A    between atoms: C_2  and  C_3
REMARK    2  A    between atoms: C_22  and  C_23
REMARK                            x       y       z     vdW  Elec       q    Type
REMARK                         _______ _______ _______ _____ _____    ______ ____
ROOT
ATOM      1  C   UNL     1       3.591   6.112  -3.390  0.00  0.00    +0.180 C 
ATOM      2  C   UNL     1       2.769   5.965  -4.660  0.00  0.00    +0.037 C 
ATOM      3  C   UNL     1       3.467   4.576  -5.070  0.00  0.00    +0.003 C 
ATOM      4  C   UNL     1       3.287   4.551  -6.760  0.00  0.00    +0.001 C 
ATOM      5  C   UNL     1       1.719   5.166  -6.742  0.00  0.00    +0.004 C 
ATOM      6  C   UNL     1       2.005   6.745  -6.824  0.00  0.00    +0.000 C 
ATOM      7  C   UNL     1       1.565   4.822  -8.398  0.00  0.00    +0.019 C 
ATOM      8  C   UNL     1       2.470   6.002  -8.978  0.00  0.00    -0.043 C 
ATOM      9  C   UNL     1       2.099   6.507 -10.142  0.00  0.00    +0.010 C 
ATOM     10  C   UNL     1       0.760   6.411 -10.695  0.00  0.00    +0.101 C 
ATOM     11  C   UNL     1      -0.174   5.504  -9.955  0.00  0.00    +0.050 C 
ATOM     12  N   UNL     1       0.204   7.406 -11.314  0.00  0.00    -0.034 NA
ATOM     13  O   UNL     1      -1.167   7.511 -11.463  0.00  0.00    -0.143 OA
ATOM     14  C   UNL     1       3.901   5.874  -8.657  0.00  0.00    +0.022 C 
ATOM     15  C   UNL     1       0.190   5.683  -8.488  0.00  0.00    +0.010 C 
ATOM     16  C   UNL     1       4.135   5.857  -7.164  0.00  0.00    +0.004 C 
ATOM     17  C   UNL     1       4.971   5.203  -5.058  0.00  0.00    +0.004 C 
ATOM     18  C   UNL     1       2.689   7.030  -5.523  0.00  0.00    +0.003 C 
ATOM     19  C   UNL     1       5.025   5.919  -3.772  0.00  0.00    +0.043 C 
ATOM     20  O   UNL     1       3.233   5.009  -2.601  0.00  0.00    -0.212 OA
ENDROOT
BRANCH   1  22
ATOM     21  C   UNL     1       3.357   8.079  -2.205  0.00  0.00    -0.012 C 
ATOM     22  C   UNL     1       3.366   7.389  -2.682  0.00  0.00    -0.049 C 
ENDBRANCH   1  22
BRANCH   2  23
ATOM     23  C   UNL     1       1.379   5.585  -4.137  0.00  0.00    +0.003 C 
ATOM     24  C   UNL     1       0.527   6.817  -4.134  0.00  0.00    +0.000 C 
ENDBRANCH   2  23
TORSDOF 2
ENDMDL
MODEL 8
REMARK VINA RESULT:      -7.7      3.489      5.525
REMARK  Name = 
REMARK  2 active torsions:
REMARK  status: ('A' for Active; 'I' for Inactive)
REMARK    1  A    between atoms: C_2  and  C_3
REMARK    2  A    between atoms: C_22  and  C_23
REMARK                            x       y       z     vdW  Elec       q    Type
REMARK                         _______ _______ _______ _____ _____    ______ ____
ROOT
ATOM      1  C   UNL     1       2.570   5.715  -1.715  0.00  0.00    +0.180 C 
ATOM      2  C   UNL     1       2.604   6.092  -3.188  0.00  0.00    +0.037 C 
ATOM      3  C   UNL     1       1.100   6.660  -3.180  0.00  0.00    +0.003 C 
ATOM      4  C   UNL     1       0.621   6.472  -4.800  0.00  0.00    +0.001 C 
ATOM      5  C   UNL     1       2.102   6.957  -5.440  0.00  0.00    +0.004 C 
ATOM      6  C   UNL     1       2.873   5.551  -5.536  0.00  0.00    +0.000 C 
ATOM      7  C   UNL     1       1.414   7.006  -6.993  0.00  0.00    +0.019 C 
ATOM      8  C   UNL     1       1.332   5.437  -7.273  0.00  0.00    -0.043 C 
ATOM      9  C   UNL     1       1.503   5.056  -8.527  0.00  0.00    +0.010 C 
ATOM     10  C   UNL     1       2.177   5.842  -9.545  0.00  0.00    +0.101 C 
ATOM     11  C   UNL     1       2.507   7.249  -9.151  0.00  0.00    +0.050 C 
ATOM     12  N   UNL     1       2.975   5.298 -10.410  0.00  0.00    -0.034 NA
ATOM     13  O   UNL     1       3.938   6.025 -11.085  0.00  0.00    -0.143 OA
ATOM     14  C   UNL     1       0.372   4.724  -6.414  0.00  0.00    +0.022 C 
ATOM     15  C   UNL     1       2.879   7.164  -7.678  0.00  0.00    +0.010 C 
ATOM     16  C   UNL     1       0.718   4.873  -4.951  0.00  0.00    +0.004 C 
ATOM     17  C   UNL     1       0.459   5.262  -2.639  0.00  0.00    +0.004 C 
ATOM     18  C   UNL     1       3.032   5.158  -4.100  0.00  0.00    +0.003 C 
ATOM     19  C   UNL     1       1.323   4.919  -1.496  0.00  0.00    +0.043 C 
ATOM     20  O   UNL     1       2.395   6.930  -1.038  0.00  0.00    -0.212 OA
ENDROOT
BRANCH   1  22
ATOM     21  C   UNL     1       4.386   4.560  -0.882  0.00  0.00    -0.012 C 
ATOM     22  C   UNL     1       3.779   5.001  -1.258  0.00  0.00    -0.049 C 
ENDBRANCH   1  22
BRANCH   2  23
ATOM     23  C   UNL     1       3.508   7.330  -3.213  0.00  0.00    +0.003 C 
ATOM     24  C   UNL     1       4.904   6.883  -3.520  0.00  0.00    +0.000 C 
ENDBRANCH   2  23
TORSDOF 2
ENDMDL
MODEL 9
REMARK VINA RESULT:      -7.7      3.001      3.924
REMARK  Name = 
REMARK  2 active torsions:
REMARK  status: ('A' for Active; 'I' for Inactive)
REMARK    1  A    between atoms: C_2  and  C_3
REMARK    2  A    between atoms: C_22  and  C_23
REMARK                            x       y       z     vdW  Elec       q    Type
REMARK                         _______ _______ _______ _____ _____    ______ ____
ROOT
ATOM      1  C   UNL     1       3.104   5.960  -5.461  0.00  0.00    +0.180 C 
ATOM      2  C   UNL     1       2.963   5.972  -6.975  0.00  0.00    +0.037 C 
ATOM      3  C   UNL     1       2.034   7.285  -6.978  0.00  0.00    +0.003 C 
ATOM      4  C   UNL     1       1.144   7.109  -8.415  0.00  0.00    +0.001 C 
ATOM      5  C   UNL     1       2.446   6.537  -9.318  0.00  0.00    +0.004 C 
ATOM      6  C   UNL     1       2.317   4.953  -9.078  0.00  0.00    +0.000 C 
ATOM      7  C   UNL     1       1.526   6.682 -10.738  0.00  0.00    +0.019 C 
ATOM      8  C   UNL     1       0.570   5.419 -10.539  0.00  0.00    -0.043 C 
ATOM      9  C   UNL     1       0.199   4.786 -11.638  0.00  0.00    +0.010 C 
ATOM     10  C   UNL     1       0.907   4.845 -12.905  0.00  0.00    +0.101 C 
ATOM     11  C   UNL     1       2.009   5.857 -12.974  0.00  0.00    +0.050 C 
ATOM     12  N   UNL     1       1.060   3.795 -13.651  0.00  0.00    -0.034 NA
ATOM     13  O   UNL     1       2.058   3.705 -14.604  0.00  0.00    -0.143 OA
ATOM     14  C   UNL     1      -0.373   5.553  -9.416  0.00  0.00    +0.022 C 
ATOM     15  C   UNL     1       2.634   5.848 -11.586  0.00  0.00    +0.010 C 
ATOM     16  C   UNL     1       0.351   5.744  -8.103  0.00  0.00    +0.004 C 
ATOM     17  C   UNL     1       0.916   6.629  -5.991  0.00  0.00    +0.004 C 
ATOM     18  C   UNL     1       2.598   4.812  -7.614  0.00  0.00    +0.003 C 
ATOM     19  C   UNL     1       1.724   6.073  -4.893  0.00  0.00    +0.043 C 
ATOM     20  O   UNL     1       3.764   7.158  -5.153  0.00  0.00    -0.212 OA
ENDROOT
BRANCH   1  22
ATOM     21  C   UNL     1       4.294   4.208  -4.547  0.00  0.00    -0.012 C 
ATOM     22  C   UNL     1       3.830   4.784  -4.942  0.00  0.00    -0.049 C 
ENDBRANCH   1  22
BRANCH   2  23
ATOM     23  C   UNL     1       4.341   6.445  -7.452  0.00  0.00    +0.003 C 
ATOM     24  C   UNL     1       5.122   5.243  -7.889  0.00  0.00    +0.000 C 
ENDBRANCH   2  23
TORSDOF 2
ENDMDL
