MODEL 1
REMARK VINA RESULT:      -5.1      0.000      0.000
REMARK  Name = 
REMARK  1 active torsions:
REMARK  status: ('A' for Active; 'I' for Inactive)
REMARK    1  A    between atoms: C_2  and  C_4
REMARK                            x       y       z     vdW  Elec       q    Type
REMARK                         _______ _______ _______ _____ _____    ______ ____
ROOT
ATOM      1  C   UNL     1      -1.462   5.572  -4.191  0.00  0.00    +0.080 A 
ATOM      2  C   UNL     1      -0.192   5.478  -4.740  0.00  0.00    +0.007 A 
ATOM      3  C   UNL     1      -0.061   5.700  -6.105  0.00  0.00    +0.000 A 
ATOM      4  C   UNL     1      -1.175   5.445  -6.895  0.00  0.00    +0.000 A 
ATOM      5  C   UNL     1      -2.394   5.823  -6.343  0.00  0.00    +0.000 A 
ATOM      6  C   UNL     1      -2.592   5.582  -4.992  0.00  0.00    +0.007 A 
ENDROOT
BRANCH   1   8
ATOM      7  O   UNL     1      -2.745   4.938  -2.343  0.00  0.00    -0.241 OA
ATOM      8  C   UNL     1      -1.604   5.292  -2.762  0.00  0.00    +0.388 C 
ATOM      9  O   UNL     1      -0.468   4.983  -2.006  0.00  0.00    -0.241 OA
ENDBRANCH   1   8
TORSDOF 1
ENDMDL
MODEL 2
REMARK VINA RESULT:      -5.0      7.655      9.129
REMARK  Name = 
REMARK  1 active torsions:
REMARK  status: ('A' for Active; 'I' for Inactive)
REMARK    1  A    between atoms: C_2  and  C_4
REMARK                            x       y       z     vdW  Elec       q    Type
REMARK                         _______ _______ _______ _____ _____    ______ ____
ROOT
ATOM      1  C   UNL     1       5.646   5.777  -9.575  0.00  0.00    +0.080 A 
ATOM      2  C   UNL     1       4.941   6.717 -10.311  0.00  0.00    +0.007 A 
ATOM      3  C   UNL     1       5.653   7.497 -11.212  0.00  0.00    +0.000 A 
ATOM      4  C   UNL     1       7.001   7.701 -10.943  0.00  0.00    +0.000 A 
ATOM      5  C   UNL     1       7.680   6.597 -10.441  0.00  0.00    +0.000 A 
ATOM      6  C   UNL     1       7.028   5.810  -9.504  0.00  0.00    +0.007 A 
ENDROOT
BRANCH   1   8
ATOM      7  O   UNL     1       4.849   5.426  -7.405  0.00  0.00    -0.241 OA
ATOM      8  C   UNL     1       4.901   4.989  -8.592  0.00  0.00    +0.388 C 
ATOM      9  O   UNL     1       3.933   4.080  -9.032  0.00  0.00    -0.241 OA
ENDBRANCH   1   8
TORSDOF 1
ENDMDL
MODEL 3
REMARK VINA RESULT:      -4.9      9.899     11.316
REMARK  Name = 
REMARK  1 active torsions:
REMARK  status: ('A' for Active; 'I' for Inactive)
REMARK    1  A    between atoms: C_2  and  C_4
REMARK                            x       y       z     vdW  Elec       q    Type
REMARK                         _______ _______ _______ _____ _____    ______ ____
ROOT
ATOM      1  C   UNL     1       7.223   5.953 -11.302  0.00  0.00    +0.080 A 
ATOM      2  C   UNL     1       5.979   6.460 -11.648  0.00  0.00    +0.007 A 
ATOM      3  C   UNL     1       5.075   6.705 -10.623  0.00  0.00    +0.000 A 
ATOM      4  C   UNL     1       5.215   5.951  -9.464  0.00  0.00    +0.000 A 
ATOM      5  C   UNL     1       6.525   5.718  -9.062  0.00  0.00    +0.000 A 
ATOM      6  C   UNL     1       7.459   5.425 -10.044  0.00  0.00    +0.007 A 
ENDROOT
BRANCH   1   8
ATOM      7  O   UNL     1       9.383   5.899 -12.194  0.00  0.00    -0.241 OA
ATOM      8  C   UNL     1       8.156   5.652 -12.389  0.00  0.00    +0.388 C 
ATOM      9  O   UNL     1       7.788   4.733 -13.376  0.00  0.00    -0.241 OA
ENDBRANCH   1   8
TORSDOF 1
ENDMDL
MODEL 4
REMARK VINA RESULT:      -4.9      7.690      9.026
REMARK  Name = 
REMARK  1 active torsions:
REMARK  status: ('A' for Active; 'I' for Inactive)
REMARK    1  A    between atoms: C_2  and  C_4
REMARK                            x       y       z     vdW  Elec       q    Type
REMARK                         _______ _______ _______ _____ _____    ______ ____
ROOT
ATOM      1  C   UNL     1       5.644   5.981  -9.429  0.00  0.00    +0.080 A 
ATOM      2  C   UNL     1       7.020   5.820  -9.504  0.00  0.00    +0.007 A 
ATOM      3  C   UNL     1       7.727   6.688 -10.326  0.00  0.00    +0.000 A 
ATOM      4  C   UNL     1       7.038   7.244 -11.396  0.00  0.00    +0.000 A 
ATOM      5  C   UNL     1       5.724   7.612 -11.131  0.00  0.00    +0.000 A 
ATOM      6  C   UNL     1       4.961   6.757 -10.350  0.00  0.00    +0.007 A 
ENDROOT
BRANCH   1   8
ATOM      7  O   UNL     1       4.791   5.297  -7.363  0.00  0.00    -0.241 OA
ATOM      8  C   UNL     1       4.897   5.037  -8.598  0.00  0.00    +0.388 C 
ATOM      9  O   UNL     1       3.979   4.170  -9.199  0.00  0.00    -0.241 OA
ENDBRANCH   1   8
TORSDOF 1
ENDMDL
MODEL 5
REMARK VINA RESULT:      -4.9     11.425     12.423
REMARK  Name = 
REMARK  1 active torsions:
REMARK  status: ('A' for Active; 'I' for Inactive)
REMARK    1  A    between atoms: C_2  and  C_4
REMARK                            x       y       z     vdW  Elec       q    Type
REMARK                         _______ _______ _______ _____ _____    ______ ____
ROOT
ATOM      1  C   UNL     1       6.929   6.780 -13.148  0.00  0.00    +0.080 A 
ATOM      2  C   UNL     1       6.450   7.472 -12.045  0.00  0.00    +0.007 A 
ATOM      3  C   UNL     1       7.149   7.348 -10.852  0.00  0.00    +0.000 A 
ATOM      4  C   UNL     1       7.883   6.182 -10.669  0.00  0.00    +0.000 A 
ATOM      5  C   UNL     1       8.543   5.712 -11.800  0.00  0.00    +0.000 A 
ATOM      6  C   UNL     1       7.870   5.774 -13.011  0.00  0.00    +0.007 A 
ENDROOT
BRANCH   1   8
ATOM      7  O   UNL     1       5.135   6.146 -14.507  0.00  0.00    -0.241 OA
ATOM      8  C   UNL     1       6.164   6.876 -14.392  0.00  0.00    +0.388 C 
ATOM      9  O   UNL     1       6.288   8.019 -15.188  0.00  0.00    -0.241 OA
ENDBRANCH   1   8
TORSDOF 1
ENDMDL
MODEL 6
REMARK VINA RESULT:      -4.7      2.694      3.492
REMARK  Name = 
REMARK  1 active torsions:
REMARK  status: ('A' for Active; 'I' for Inactive)
REMARK    1  A    between atoms: C_2  and  C_4
REMARK                            x       y       z     vdW  Elec       q    Type
REMARK                         _______ _______ _______ _____ _____    ______ ____
ROOT
ATOM      1  C   UNL     1      -0.377   5.542  -5.986  0.00  0.00    +0.080 A 
ATOM      2  C   UNL     1      -0.220   6.550  -5.046  0.00  0.00    +0.007 A 
ATOM      3  C   UNL     1      -1.366   7.180  -4.578  0.00  0.00    +0.000 A 
ATOM      4  C   UNL     1      -2.470   7.189  -5.422  0.00  0.00    +0.000 A 
ATOM      5  C   UNL     1      -2.683   6.014  -6.134  0.00  0.00    +0.000 A 
ATOM      6  C   UNL     1      -1.574   5.369  -6.660  0.00  0.00    +0.007 A 
ENDROOT
BRANCH   1   8
ATOM      7  O   UNL     1       1.234   3.848  -5.951  0.00  0.00    -0.241 OA
ATOM      8  C   UNL     1       0.835   4.912  -6.511  0.00  0.00    +0.388 C 
ATOM      9  O   UNL     1       1.247   5.198  -7.817  0.00  0.00    -0.241 OA
ENDBRANCH   1   8
TORSDOF 1
ENDMDL
MODEL 7
REMARK VINA RESULT:      -4.6      3.432      4.392
REMARK  Name = 
REMARK  1 active torsions:
REMARK  status: ('A' for Active; 'I' for Inactive)
REMARK    1  A    between atoms: C_2  and  C_4
REMARK                            x       y       z     vdW  Elec       q    Type
REMARK                         _______ _______ _______ _____ _____    ______ ____
ROOT
ATOM      1  C   UNL     1       0.774   6.567  -6.506  0.00  0.00    +0.080 A 
ATOM      2  C   UNL     1       0.039   7.051  -5.433  0.00  0.00    +0.007 A 
ATOM      3  C   UNL     1      -1.178   6.442  -5.158  0.00  0.00    +0.000 A 
ATOM      4  C   UNL     1      -1.830   5.827  -6.220  0.00  0.00    +0.000 A 
ATOM      5  C   UNL     1      -1.007   5.143  -7.107  0.00  0.00    +0.000 A 
ATOM      6  C   UNL     1       0.202   5.730  -7.449  0.00  0.00    +0.007 A 
ENDROOT
BRANCH   1   8
ATOM      7  O   UNL     1       3.110   6.642  -6.525  0.00  0.00    -0.241 OA
ATOM      8  C   UNL     1       2.034   7.240  -6.821  0.00  0.00    +0.388 C 
ATOM      9  O   UNL     1       2.051   8.244  -7.795  0.00  0.00    -0.241 OA
ENDBRANCH   1   8
TORSDOF 1
ENDMDL
MODEL 8
REMARK VINA RESULT:      -4.6      0.697      1.937
REMARK  Name = 
REMARK  1 active torsions:
REMARK  status: ('A' for Active; 'I' for Inactive)
REMARK    1  A    between atoms: C_2  and  C_4
REMARK                            x       y       z     vdW  Elec       q    Type
REMARK                         _______ _______ _______ _____ _____    ______ ____
ROOT
ATOM      1  C   UNL     1      -1.445   5.451  -4.080  0.00  0.00    +0.080 A 
ATOM      2  C   UNL     1      -2.570   5.638  -4.869  0.00  0.00    +0.007 A 
ATOM      3  C   UNL     1      -2.432   5.473  -6.240  0.00  0.00    +0.000 A 
ATOM      4  C   UNL     1      -1.169   5.691  -6.777  0.00  0.00    +0.000 A 
ATOM      5  C   UNL     1      -0.108   5.225  -6.009  0.00  0.00    +0.000 A 
ATOM      6  C   UNL     1      -0.178   5.405  -4.637  0.00  0.00    +0.007 A 
ENDROOT
BRANCH   1   8
ATOM      7  O   UNL     1      -1.100   6.739  -2.160  0.00  0.00    -0.241 OA
ATOM      8  C   UNL     1      -1.584   5.671  -2.640  0.00  0.00    +0.388 C 
ATOM      9  O   UNL     1      -2.579   4.988  -1.933  0.00  0.00    -0.241 OA
ENDBRANCH   1   8
TORSDOF 1
ENDMDL
MODEL 9
REMARK VINA RESULT:      -4.5      2.406      3.327
REMARK  Name = 
REMARK  1 active torsions:
REMARK  status: ('A' for Active; 'I' for Inactive)
REMARK    1  A    between atoms: C_2  and  C_4
REMARK                            x       y       z     vdW  Elec       q    Type
REMARK                         _______ _______ _______ _____ _____    ______ ____
ROOT
ATOM      1  C   UNL     1       0.192   5.027  -5.555  0.00  0.00    +0.080 A 
ATOM      2  C   UNL     1      -0.289   5.588  -4.381  0.00  0.00    +0.007 A 
ATOM      3  C   UNL     1      -1.621   5.977  -4.351  0.00  0.00    +0.000 A 
ATOM      4  C   UNL     1      -2.210   6.308  -5.565  0.00  0.00    +0.000 A 
ATOM      5  C   UNL     1      -1.847   5.505  -6.640  0.00  0.00    +0.000 A 
ATOM      6  C   UNL     1      -0.518   5.124  -6.740  0.00  0.00    +0.007 A 
ENDROOT
BRANCH   1   8
ATOM      7  O   UNL     1       2.341   5.029  -4.634  0.00  0.00    -0.241 OA
ATOM      8  C   UNL     1       1.608   4.660  -5.600  0.00  0.00    +0.388 C 
ATOM      9  O   UNL     1       2.015   3.591  -6.404  0.00  0.00    -0.241 OA
ENDBRANCH   1   8
TORSDOF 1
ENDMDL
