MODEL 1
REMARK VINA RESULT:      -6.3      0.000      0.000
REMARK  Name = 
REMARK  5 active torsions:
REMARK  status: ('A' for Active; 'I' for Inactive)
REMARK    1  A    between atoms: C_2  and  N_5
REMARK    2  A    between atoms: N_5  and  C_6
REMARK    3  A    between atoms: C_6  and  C_7
REMARK    4  A    between atoms: C_7  and  C_9
REMARK    5  A    between atoms: C_14  and  C_15
REMARK                            x       y       z     vdW  Elec       q    Type
REMARK                         _______ _______ _______ _____ _____    ______ ____
ROOT
ATOM      1  C   UNL     1      -0.336   5.952  -5.816  0.00  0.00    +0.009 A 
ATOM      2  C   UNL     1       0.171   5.869  -4.520  0.00  0.00    -0.000 A 
ATOM      3  C   UNL     1      -0.636   5.631  -3.413  0.00  0.00    +0.049 A 
ATOM      4  C   UNL     1      -1.996   5.440  -3.603  0.00  0.00    +0.194 A 
ATOM      5  O   UNL     1      -2.806   4.800  -2.660  0.00  0.00    -0.287 OA
ATOM      6  C   UNL     1      -2.488   5.855  -4.835  0.00  0.00    +0.042 A 
ATOM      7  C   UNL     1      -1.654   5.627  -5.921  0.00  0.00    +0.001 A 
ENDROOT
BRANCH   1   8
ATOM      8  C   UNL     1       0.692   5.148  -6.795  0.00  0.00    +0.192 C 
ATOM      9  O   UNL     1       0.066   5.601  -8.116  0.00  0.00    -0.217 OA
BRANCH   8  10
ATOM     10  C   UNL     1       1.769   6.404  -6.822  0.00  0.00    +0.126 C 
BRANCH  10  11
ATOM     11  N   UNL     1       3.016   5.698  -6.813  0.00  0.00    -0.218 NA
BRANCH  11  13
ATOM     12  C   UNL     1       4.357   5.722  -5.913  0.00  0.00    +0.017 C 
ATOM     13  C   UNL     1       3.835   5.815  -5.697  0.00  0.00    +0.060 C 
ATOM     14  C   UNL     1       3.785   4.754  -4.666  0.00  0.00    +0.017 C 
ATOM     15  C   UNL     1       3.904   7.186  -5.066  0.00  0.00    +0.017 C 
ENDBRANCH  11  13
ENDBRANCH  10  11
ENDBRANCH   8  10
ENDBRANCH   1   8
BRANCH   3  16
ATOM     16  C   UNL     1      -0.141   5.630  -2.019  0.00  0.00    +0.212 C 
ATOM     17  O   UNL     1       0.371   4.418  -1.606  0.00  0.00    -0.215 OA
ENDBRANCH   3  16
TORSDOF 5
ENDMDL
MODEL 2
REMARK VINA RESULT:      -6.2      4.085      5.649
REMARK  Name = 
REMARK  5 active torsions:
REMARK  status: ('A' for Active; 'I' for Inactive)
REMARK    1  A    between atoms: C_2  and  N_5
REMARK    2  A    between atoms: N_5  and  C_6
REMARK    3  A    between atoms: C_6  and  C_7
REMARK    4  A    between atoms: C_7  and  C_9
REMARK    5  A    between atoms: C_14  and  C_15
REMARK                            x       y       z     vdW  Elec       q    Type
REMARK                         _______ _______ _______ _____ _____    ______ ____
ROOT
ATOM      1  C   UNL     1       4.119   6.071  -8.563  0.00  0.00    +0.009 A 
ATOM      2  C   UNL     1       4.582   5.612  -7.330  0.00  0.00    -0.000 A 
ATOM      3  C   UNL     1       3.978   5.959  -6.127  0.00  0.00    +0.049 A 
ATOM      4  C   UNL     1       2.853   6.770  -6.149  0.00  0.00    +0.194 A 
ATOM      5  O   UNL     1       1.949   6.834  -5.084  0.00  0.00    -0.287 OA
ATOM      6  C   UNL     1       2.638   7.455  -7.339  0.00  0.00    +0.042 A 
ATOM      7  C   UNL     1       2.942   6.753  -8.498  0.00  0.00    +0.001 A 
ENDROOT
BRANCH   1   8
ATOM      8  C   UNL     1       4.176   4.815  -9.604  0.00  0.00    +0.192 C 
ATOM      9  O   UNL     1       2.765   4.993 -10.169  0.00  0.00    -0.217 OA
BRANCH   8  10
ATOM     10  C   UNL     1       4.824   5.745 -10.808  0.00  0.00    +0.126 C 
BRANCH  10  11
ATOM     11  N   UNL     1       6.215   5.713 -10.463  0.00  0.00    -0.218 NA
BRANCH  11  13
ATOM     12  C   UNL     1       7.347   6.864 -10.509  0.00  0.00    +0.017 C 
ATOM     13  C   UNL     1       7.046   6.704 -10.970  0.00  0.00    +0.060 C 
ATOM     14  C   UNL     1       6.449   8.002 -11.358  0.00  0.00    +0.017 C 
ATOM     15  C   UNL     1       8.076   6.254 -11.980  0.00  0.00    +0.017 C 
ENDBRANCH  11  13
ENDBRANCH  10  11
ENDBRANCH   8  10
ENDBRANCH   1   8
BRANCH   3  16
ATOM     16  C   UNL     1       4.501   5.565  -4.801  0.00  0.00    +0.212 C 
ATOM     17  O   UNL     1       4.050   4.338  -4.362  0.00  0.00    -0.215 OA
ENDBRANCH   3  16
TORSDOF 5
ENDMDL
MODEL 3
REMARK VINA RESULT:      -6.2      5.040      8.660
REMARK  Name = 
REMARK  5 active torsions:
REMARK  status: ('A' for Active; 'I' for Inactive)
REMARK    1  A    between atoms: C_2  and  N_5
REMARK    2  A    between atoms: N_5  and  C_6
REMARK    3  A    between atoms: C_6  and  C_7
REMARK    4  A    between atoms: C_7  and  C_9
REMARK    5  A    between atoms: C_14  and  C_15
REMARK                            x       y       z     vdW  Elec       q    Type
REMARK                         _______ _______ _______ _____ _____    ______ ____
ROOT
ATOM      1  C   UNL     1       5.052   5.960  -9.617  0.00  0.00    +0.009 A 
ATOM      2  C   UNL     1       4.654   5.780 -10.941  0.00  0.00    -0.000 A 
ATOM      3  C   UNL     1       5.552   5.479 -11.960  0.00  0.00    +0.049 A 
ATOM      4  C   UNL     1       6.894   5.323 -11.647  0.00  0.00    +0.194 A 
ATOM      5  O   UNL     1       7.785   4.633 -12.473  0.00  0.00    -0.287 OA
ATOM      6  C   UNL     1       7.278   5.830 -10.411  0.00  0.00    +0.042 A 
ATOM      7  C   UNL     1       6.360   5.664  -9.383  0.00  0.00    +0.001 A 
ENDROOT
BRANCH   1   8
ATOM      8  C   UNL     1       3.955   5.208  -8.671  0.00  0.00    +0.192 C 
ATOM      9  O   UNL     1       4.425   5.810  -7.345  0.00  0.00    -0.217 OA
BRANCH   8  10
ATOM     10  C   UNL     1       2.841   6.413  -8.876  0.00  0.00    +0.126 C 
BRANCH  10  11
ATOM     11  N   UNL     1       1.619   5.703  -8.638  0.00  0.00    -0.218 NA
BRANCH  11  13
ATOM     12  C   UNL     1       0.190   5.578  -9.381  0.00  0.00    +0.017 C 
ATOM     13  C   UNL     1       0.685   5.631  -9.664  0.00  0.00    +0.060 C 
ATOM     14  C   UNL     1       0.641   4.409 -10.500  0.00  0.00    +0.017 C 
ATOM     15  C   UNL     1       0.529   6.874 -10.508  0.00  0.00    +0.017 C 
ENDBRANCH  11  13
ENDBRANCH  10  11
ENDBRANCH   8  10
ENDBRANCH   1   8
BRANCH   3  16
ATOM     16  C   UNL     1       5.173   5.375 -13.386  0.00  0.00    +0.212 C 
ATOM     17  O   UNL     1       4.375   4.289 -13.676  0.00  0.00    -0.215 OA
ENDBRANCH   3  16
TORSDOF 5
ENDMDL
MODEL 4
REMARK VINA RESULT:      -6.1      2.133      3.296
REMARK  Name = 
REMARK  5 active torsions:
REMARK  status: ('A' for Active; 'I' for Inactive)
REMARK    1  A    between atoms: C_2  and  N_5
REMARK    2  A    between atoms: N_5  and  C_6
REMARK    3  A    between atoms: C_6  and  C_7
REMARK    4  A    between atoms: C_7  and  C_9
REMARK    5  A    between atoms: C_14  and  C_15
REMARK                            x       y       z     vdW  Elec       q    Type
REMARK                         _______ _______ _______ _____ _____    ______ ____
ROOT
ATOM      1  C   UNL     1      -0.197   6.327  -5.588  0.00  0.00    +0.009 A 
ATOM      2  C   UNL     1       0.165   6.152  -4.253  0.00  0.00    -0.000 A 
ATOM      3  C   UNL     1      -0.737   5.733  -3.281  0.00  0.00    +0.049 A 
ATOM      4  C   UNL     1      -2.042   5.450  -3.654  0.00  0.00    +0.194 A 
ATOM      5  O   UNL     1      -2.889   4.650  -2.881  0.00  0.00    -0.287 OA
ATOM      6  C   UNL     1      -2.428   5.949  -4.892  0.00  0.00    +0.042 A 
ATOM      7  C   UNL     1      -1.457   5.906  -5.884  0.00  0.00    +0.001 A 
ENDROOT
BRANCH   1   8
ATOM      8  C   UNL     1       1.008   5.717  -6.505  0.00  0.00    +0.192 C 
ATOM      9  O   UNL     1       0.848   4.262  -6.059  0.00  0.00    -0.217 OA
BRANCH   8  10
ATOM     10  C   UNL     1       0.006   5.479  -7.799  0.00  0.00    +0.126 C 
BRANCH  10  11
ATOM     11  N   UNL     1       0.956   5.343  -8.862  0.00  0.00    -0.218 NA
BRANCH  11  13
ATOM     12  C   UNL     1       0.059   5.882 -10.093  0.00  0.00    +0.017 C 
ATOM     13  C   UNL     1       0.527   5.559 -10.165  0.00  0.00    +0.060 C 
ATOM     14  C   UNL     1      -0.053   4.425 -10.920  0.00  0.00    +0.017 C 
ATOM     15  C   UNL     1       1.445   6.382 -11.039  0.00  0.00    +0.017 C 
ENDBRANCH  11  13
ENDBRANCH  10  11
ENDBRANCH   8  10
ENDBRANCH   1   8
BRANCH   3  16
ATOM     16  C   UNL     1      -0.406   5.629  -1.843  0.00  0.00    +0.212 C 
ATOM     17  O   UNL     1       0.289   4.486  -1.509  0.00  0.00    -0.215 OA
ENDBRANCH   3  16
TORSDOF 5
ENDMDL
MODEL 5
REMARK VINA RESULT:      -6.1      4.733      8.161
REMARK  Name = 
REMARK  5 active torsions:
REMARK  status: ('A' for Active; 'I' for Inactive)
REMARK    1  A    between atoms: C_2  and  N_5
REMARK    2  A    between atoms: N_5  and  C_6
REMARK    3  A    between atoms: C_6  and  C_7
REMARK    4  A    between atoms: C_7  and  C_9
REMARK    5  A    between atoms: C_14  and  C_15
REMARK                            x       y       z     vdW  Elec       q    Type
REMARK                         _______ _______ _______ _____ _____    ______ ____
ROOT
ATOM      1  C   UNL     1       4.980   6.181  -9.664  0.00  0.00    +0.009 A 
ATOM      2  C   UNL     1       4.644   6.010 -11.005  0.00  0.00    -0.000 A 
ATOM      3  C   UNL     1       5.568   5.613 -11.965  0.00  0.00    +0.049 A 
ATOM      4  C   UNL     1       6.872   5.349 -11.573  0.00  0.00    +0.194 A 
ATOM      5  O   UNL     1       7.745   4.569 -12.336  0.00  0.00    -0.287 OA
ATOM      6  C   UNL     1       7.228   5.846 -10.325  0.00  0.00    +0.042 A 
ATOM      7  C   UNL     1       6.242   5.780  -9.349  0.00  0.00    +0.001 A 
ENDROOT
BRANCH   1   8
ATOM      8  C   UNL     1       3.771   5.545  -8.771  0.00  0.00    +0.192 C 
ATOM      9  O   UNL     1       4.057   4.080  -9.107  0.00  0.00    -0.217 OA
BRANCH   8  10
ATOM     10  C   UNL     1       4.712   5.466  -7.414  0.00  0.00    +0.126 C 
BRANCH  10  11
ATOM     11  N   UNL     1       3.907   6.192  -6.477  0.00  0.00    -0.218 NA
BRANCH  11  13
ATOM     12  C   UNL     1       4.731   5.832  -5.135  0.00  0.00    +0.017 C 
ATOM     13  C   UNL     1       4.248   6.141  -5.131  0.00  0.00    +0.060 C 
ATOM     14  C   UNL     1       3.418   5.321  -4.219  0.00  0.00    +0.017 C 
ATOM     15  C   UNL     1       4.624   7.457  -4.491  0.00  0.00    +0.017 C 
ENDBRANCH  11  13
ENDBRANCH  10  11
ENDBRANCH   8  10
ENDBRANCH   1   8
BRANCH   3  16
ATOM     16  C   UNL     1       5.263   5.513 -13.409  0.00  0.00    +0.212 C 
ATOM     17  O   UNL     1       4.443   4.455 -13.737  0.00  0.00    -0.215 OA
ENDBRANCH   3  16
TORSDOF 5
ENDMDL
MODEL 6
REMARK VINA RESULT:      -5.9      2.745      6.025
REMARK  Name = 
REMARK  5 active torsions:
REMARK  status: ('A' for Active; 'I' for Inactive)
REMARK    1  A    between atoms: C_2  and  N_5
REMARK    2  A    between atoms: N_5  and  C_6
REMARK    3  A    between atoms: C_6  and  C_7
REMARK    4  A    between atoms: C_7  and  C_9
REMARK    5  A    between atoms: C_14  and  C_15
REMARK                            x       y       z     vdW  Elec       q    Type
REMARK                         _______ _______ _______ _____ _____    ______ ____
ROOT
ATOM      1  C   UNL     1       0.841   6.060  -6.875  0.00  0.00    +0.009 A 
ATOM      2  C   UNL     1       0.269   5.636  -8.073  0.00  0.00    -0.000 A 
ATOM      3  C   UNL     1       0.838   5.907  -9.313  0.00  0.00    +0.049 A 
ATOM      4  C   UNL     1       2.037   6.602  -9.364  0.00  0.00    +0.194 A 
ATOM      5  O   UNL     1       2.883   6.564 -10.476  0.00  0.00    -0.287 OA
ATOM      6  C   UNL     1       2.383   7.275  -8.198  0.00  0.00    +0.042 A 
ATOM      7  C   UNL     1       2.074   6.620  -7.013  0.00  0.00    +0.001 A 
ENDROOT
BRANCH   1   8
ATOM      8  C   UNL     1       0.716   4.828  -5.812  0.00  0.00    +0.192 C 
ATOM      9  O   UNL     1       2.184   4.822  -5.378  0.00  0.00    -0.217 OA
BRANCH   8  10
ATOM     10  C   UNL     1       0.306   5.841  -4.570  0.00  0.00    +0.126 C 
BRANCH  10  11
ATOM     11  N   UNL     1      -1.078   5.517  -4.396  0.00  0.00    -0.218 NA
BRANCH  11  13
ATOM     12  C   UNL     1      -2.460   6.354  -4.441  0.00  0.00    +0.017 C 
ATOM     13  C   UNL     1      -2.032   6.437  -4.812  0.00  0.00    +0.060 C 
ATOM     14  C   UNL     1      -2.743   6.195  -6.088  0.00  0.00    +0.017 C 
ATOM     15  C   UNL     1      -1.657   7.894  -4.665  0.00  0.00    +0.017 C 
ENDBRANCH  11  13
ENDBRANCH  10  11
ENDBRANCH   8  10
ENDBRANCH   1   8
BRANCH   3  16
ATOM     16  C   UNL     1       0.206   5.552 -10.603  0.00  0.00    +0.212 C 
ATOM     17  O   UNL     1      -0.058   4.207 -10.746  0.00  0.00    -0.215 OA
ENDBRANCH   3  16
TORSDOF 5
ENDMDL
MODEL 7
REMARK VINA RESULT:      -5.8      2.701      5.976
REMARK  Name = 
REMARK  5 active torsions:
REMARK  status: ('A' for Active; 'I' for Inactive)
REMARK    1  A    between atoms: C_2  and  N_5
REMARK    2  A    between atoms: N_5  and  C_6
REMARK    3  A    between atoms: C_6  and  C_7
REMARK    4  A    between atoms: C_7  and  C_9
REMARK    5  A    between atoms: C_14  and  C_15
REMARK                            x       y       z     vdW  Elec       q    Type
REMARK                         _______ _______ _______ _____ _____    ______ ____
ROOT
ATOM      1  C   UNL     1       1.149   5.931  -2.687  0.00  0.00    +0.009 A 
ATOM      2  C   UNL     1       0.918   5.309  -3.913  0.00  0.00    -0.000 A 
ATOM      3  C   UNL     1       1.856   5.304  -4.939  0.00  0.00    +0.049 A 
ATOM      4  C   UNL     1       3.083   5.917  -4.730  0.00  0.00    +0.194 A 
ATOM      5  O   UNL     1       4.213   5.621  -5.497  0.00  0.00    -0.287 OA
ATOM      6  C   UNL     1       3.135   6.788  -3.648  0.00  0.00    +0.042 A 
ATOM      7  C   UNL     1       2.419   6.393  -2.526  0.00  0.00    +0.001 A 
ENDROOT
BRANCH   1   8
ATOM      8  C   UNL     1       0.582   4.938  -1.521  0.00  0.00    +0.192 C 
ATOM      9  O   UNL     1       1.512   5.426  -0.408  0.00  0.00    -0.217 OA
BRANCH   8  10
ATOM     10  C   UNL     1      -0.593   6.012  -1.073  0.00  0.00    +0.126 C 
BRANCH  10  11
ATOM     11  N   UNL     1      -1.771   5.341  -1.537  0.00  0.00    -0.218 NA
BRANCH  11  13
ATOM     12  C   UNL     1      -3.070   6.021  -2.215  0.00  0.00    +0.017 C 
ATOM     13  C   UNL     1      -2.566   5.976  -2.483  0.00  0.00    +0.060 C 
ATOM     14  C   UNL     1      -2.977   5.219  -3.687  0.00  0.00    +0.017 C 
ATOM     15  C   UNL     1      -2.174   7.392  -2.837  0.00  0.00    +0.017 C 
ENDBRANCH  11  13
ENDBRANCH  10  11
ENDBRANCH   8  10
ENDBRANCH   1   8
BRANCH   3  16
ATOM     16  C   UNL     1       1.604   4.735  -6.281  0.00  0.00    +0.212 C 
ATOM     17  O   UNL     1       2.050   3.439  -6.433  0.00  0.00    -0.215 OA
ENDBRANCH   3  16
TORSDOF 5
ENDMDL
MODEL 8
REMARK VINA RESULT:      -5.8      1.364      1.930
REMARK  Name = 
REMARK  5 active torsions:
REMARK  status: ('A' for Active; 'I' for Inactive)
REMARK    1  A    between atoms: C_2  and  N_5
REMARK    2  A    between atoms: N_5  and  C_6
REMARK    3  A    between atoms: C_6  and  C_7
REMARK    4  A    between atoms: C_7  and  C_9
REMARK    5  A    between atoms: C_14  and  C_15
REMARK                            x       y       z     vdW  Elec       q    Type
REMARK                         _______ _______ _______ _____ _____    ______ ____
ROOT
ATOM      1  C   UNL     1      -0.848   6.053  -5.519  0.00  0.00    +0.009 A 
ATOM      2  C   UNL     1      -0.485   5.670  -4.229  0.00  0.00    -0.000 A 
ATOM      3  C   UNL     1      -1.271   5.947  -3.116  0.00  0.00    +0.049 A 
ATOM      4  C   UNL     1      -2.478   6.606  -3.293  0.00  0.00    +0.194 A 
ATOM      5  O   UNL     1      -3.506   6.563  -2.347  0.00  0.00    -0.287 OA
ATOM      6  C   UNL     1      -2.631   7.246  -4.518  0.00  0.00    +0.042 A 
ATOM      7  C   UNL     1      -2.100   6.578  -5.613  0.00  0.00    +0.001 A 
ENDROOT
BRANCH   1   8
ATOM      8  C   UNL     1      -0.505   4.806  -6.514  0.00  0.00    +0.192 C 
ATOM      9  O   UNL     1      -0.746   5.556  -7.826  0.00  0.00    -0.217 OA
BRANCH   8  10
ATOM     10  C   UNL     1       1.107   5.176  -6.546  0.00  0.00    +0.126 C 
BRANCH  10  11
ATOM     11  N   UNL     1       1.114   6.302  -7.432  0.00  0.00    -0.218 NA
BRANCH  11  13
ATOM     12  C   UNL     1       2.051   7.616  -7.511  0.00  0.00    +0.017 C 
ATOM     13  C   UNL     1       2.261   7.083  -7.502  0.00  0.00    +0.060 C 
ATOM     14  C   UNL     1       3.040   7.087  -8.761  0.00  0.00    +0.017 C 
ATOM     15  C   UNL     1       3.172   7.034  -6.298  0.00  0.00    +0.017 C 
ENDBRANCH  11  13
ENDBRANCH  10  11
ENDBRANCH   8  10
ENDBRANCH   1   8
BRANCH   3  16
ATOM     16  C   UNL     1      -0.868   5.636  -1.727  0.00  0.00    +0.212 C 
ATOM     17  O   UNL     1       0.035   4.599  -1.624  0.00  0.00    -0.215 OA
ENDBRANCH   3  16
TORSDOF 5
ENDMDL
MODEL 9
REMARK VINA RESULT:      -5.8      3.916      5.362
REMARK  Name = 
REMARK  5 active torsions:
REMARK  status: ('A' for Active; 'I' for Inactive)
REMARK    1  A    between atoms: C_2  and  N_5
REMARK    2  A    between atoms: N_5  and  C_6
REMARK    3  A    between atoms: C_6  and  C_7
REMARK    4  A    between atoms: C_7  and  C_9
REMARK    5  A    between atoms: C_14  and  C_15
REMARK                            x       y       z     vdW  Elec       q    Type
REMARK                         _______ _______ _______ _____ _____    ______ ____
ROOT
ATOM      1  C   UNL     1       3.472   6.276  -8.441  0.00  0.00    +0.009 A 
ATOM      2  C   UNL     1       2.930   6.142  -7.164  0.00  0.00    -0.000 A 
ATOM      3  C   UNL     1       1.563   6.025  -6.938  0.00  0.00    +0.049 A 
ATOM      4  C   UNL     1       0.702   6.010  -8.026  0.00  0.00    +0.194 A 
ATOM      5  O   UNL     1      -0.594   5.492  -7.953  0.00  0.00    -0.287 OA
ATOM      6  C   UNL     1       1.245   6.472  -9.219  0.00  0.00    +0.042 A 
ATOM      7  C   UNL     1       2.570   6.124  -9.449  0.00  0.00    +0.001 A 
ENDROOT
BRANCH   1   8
ATOM      8  C   UNL     1       4.803   5.333  -8.508  0.00  0.00    +0.192 C 
ATOM      9  O   UNL     1       4.102   4.078  -9.033  0.00  0.00    -0.217 OA
BRANCH   8  10
ATOM     10  C   UNL     1       5.168   5.827 -10.044  0.00  0.00    +0.126 C 
BRANCH  10  11
ATOM     11  N   UNL     1       6.593   5.954  -9.961  0.00  0.00    -0.218 NA
BRANCH  11  13
ATOM     12  C   UNL     1       7.600   7.099 -10.495  0.00  0.00    +0.017 C 
ATOM     13  C   UNL     1       7.232   6.822 -10.837  0.00  0.00    +0.060 C 
ATOM     14  C   UNL     1       6.471   7.968 -11.383  0.00  0.00    +0.017 C 
ATOM     15  C   UNL     1       8.088   6.178 -11.903  0.00  0.00    +0.017 C 
ENDBRANCH  11  13
ENDBRANCH  10  11
ENDBRANCH   8  10
ENDBRANCH   1   8
BRANCH   3  16
ATOM     16  C   UNL     1       0.953   5.976  -5.592  0.00  0.00    +0.212 C 
ATOM     17  O   UNL     1       1.193   4.801  -4.910  0.00  0.00    -0.215 OA
ENDBRANCH   3  16
TORSDOF 5
ENDMDL
