MODEL 1
REMARK VINA RESULT:      -8.6      0.000      0.000
REMARK  Name = 
REMARK  20 active torsions:
REMARK  status: ('A' for Active; 'I' for Inactive)
REMARK    1  A    between atoms: C_2  and  C_4
REMARK    2  A    between atoms: C_4  and  C_5
REMARK    3  A    between atoms: C_5  and  N_6
REMARK    4  A    between atoms: C_5  and  C_28
REMARK    5  A    between atoms: C_7  and  C_9
REMARK    6  A    between atoms: C_9  and  C_10
REMARK    7  A    between atoms: C_9  and  N_18
REMARK    8  A    between atoms: C_10  and  C_11
REMARK    9  A    between atoms: C_11  and  C_12
REMARK   10  A    between atoms: C_19  and  C_21
REMARK   11  A    between atoms: C_21  and  N_22
REMARK   12  A    between atoms: N_30  and  C_31
REMARK   13  A    between atoms: C_31  and  C_32
REMARK   14  A    between atoms: C_31  and  C_39
REMARK   15  A    between atoms: C_32  and  C_33
REMARK   16  A    between atoms: N_41  and  C_42
REMARK   17  A    between atoms: C_42  and  C_43
REMARK   18  A    between atoms: C_42  and  C_47
REMARK   19  A    between atoms: C_43  and  C_44
REMARK   20  A    between atoms: C_47  and  C_49
REMARK                            x       y       z     vdW  Elec       q    Type
REMARK                         _______ _______ _______ _____ _____    ______ ____
ROOT
ATOM      1  C   UNL     1      -0.258   6.250  -6.021  0.00  0.00    +0.173 C 
ENDROOT
BRANCH   1   2
ATOM      2  C   UNL     1       0.181   5.042  -5.048  0.00  0.00    +0.262 C 
ATOM      3  N   UNL     1       0.252   5.010  -3.717  0.00  0.00    -0.196 NA
ATOM      4  O   UNL     1       1.146   4.431  -5.614  0.00  0.00    -0.271 OA
BRANCH   3   5
ATOM      5  C   UNL     1       1.589   5.243  -2.901  0.00  0.00    +0.177 C 
BRANCH   5   6
ATOM      6  C   UNL     1       0.923   5.391  -1.446  0.00  0.00    +0.262 C 
ATOM      7  N   UNL     1       0.459   6.479  -0.837  0.00  0.00    -0.198 NA
ATOM      8  O   UNL     1       1.628   4.589  -0.747  0.00  0.00    -0.271 OA
BRANCH   7   9
ATOM      9  C   UNL     1       1.052   6.898   0.567  0.00  0.00    +0.155 C 
BRANCH   9  10
ATOM     10  C   UNL     1      -0.235   7.765   0.989  0.00  0.00    +0.197 C 
ATOM     11  O   UNL     1      -0.677   8.548   0.217  0.00  0.00    -0.292 OA
BRANCH  10  12
ATOM     12  C   UNL     1      -0.284   7.910   2.466  0.00  0.00    +0.172 C 
ATOM     13  O   UNL     1       0.420   6.866   3.222  0.00  0.00    -0.346 OA
ATOM     14  C   UNL     1      -0.966   6.884   3.289  0.00  0.00    +0.177 C 
ATOM     15  C   UNL     1       0.075   9.245   3.077  0.00  0.00    +0.040 C 
ENDBRANCH  10  12
ENDBRANCH   9  10
BRANCH   9  16
ATOM     16  C   UNL     1       1.854   8.180  -0.081  0.00  0.00    +0.029 C 
BRANCH  16  17
ATOM     17  C   UNL     1       3.028   8.249   0.803  0.00  0.00    +0.002 C 
ATOM     18  C   UNL     1       4.029   7.180   0.737  0.00  0.00    +0.000 C 
ATOM     19  C   UNL     1       3.389   9.536   1.397  0.00  0.00    +0.000 C 
ENDBRANCH  16  17
ENDBRANCH   9  16
ENDBRANCH   7   9
ENDBRANCH   5   6
BRANCH   5  20
ATOM     20  C   UNL     1       1.689   6.829  -3.299  0.00  0.00    +0.057 C 
BRANCH  20  21
ATOM     21  C   UNL     1       2.999   7.214  -3.737  0.00  0.00    -0.020 A 
ATOM     22  C   UNL     1       3.577   6.869  -4.960  0.00  0.00    -0.004 A 
ATOM     23  C   UNL     1       4.908   7.064  -5.229  0.00  0.00    -0.000 A 
ATOM     24  C   UNL     1       5.731   7.419  -4.166  0.00  0.00    -0.000 A 
ATOM     25  C   UNL     1       5.248   7.465  -2.863  0.00  0.00    -0.000 A 
ATOM     26  C   UNL     1       3.952   6.971  -2.732  0.00  0.00    -0.004 A 
ENDBRANCH  20  21
ENDBRANCH   5  20
ENDBRANCH   3   5
ENDBRANCH   1   2
BRANCH   1  27
ATOM     27  N   UNL     1      -0.402   5.416  -7.356  0.00  0.00    -0.196 NA
ATOM     28  C   UNL     1       0.427   5.697  -8.441  0.00  0.00    +0.262 C 
ATOM     29  O   UNL     1       0.369   6.881  -8.746  0.00  0.00    -0.271 OA
BRANCH  28  30
ATOM     30  C   UNL     1       1.758   4.847  -8.754  0.00  0.00    +0.173 C 
BRANCH  30  31
ATOM     31  N   UNL     1       1.639   5.034 -10.310  0.00  0.00    -0.197 NA
ATOM     32  C   UNL     1       0.702   4.354 -11.046  0.00  0.00    +0.258 C 
ATOM     33  O   UNL     1      -0.367   4.025 -10.501  0.00  0.00    -0.272 OA
BRANCH  32  34
ATOM     34  C   UNL     1       0.666   4.617 -12.518  0.00  0.00    +0.160 C 
BRANCH  34  35
ATOM     35  N   UNL     1       1.520   5.731 -12.895  0.00  0.00    -0.261 NA
ATOM     36  C   UNL     1       2.637   5.314 -13.670  0.00  0.00    +0.105 C 
ATOM     37  C   UNL     1       3.177   6.335 -14.621  0.00  0.00    +0.159 C 
ATOM     38  O   UNL     1       2.088   6.754 -15.403  0.00  0.00    -0.351 OA
ATOM     39  C   UNL     1       1.341   7.568 -14.545  0.00  0.00    +0.159 C 
ATOM     40  C   UNL     1       0.720   6.772 -13.448  0.00  0.00    +0.105 C 
ENDBRANCH  34  35
ENDBRANCH  32  34
ENDBRANCH  30  31
BRANCH  30  41
ATOM     41  C   UNL     1       2.800   6.107  -8.553  0.00  0.00    +0.036 C 
BRANCH  41  42
ATOM     42  C   UNL     1       4.171   5.621  -8.473  0.00  0.00    +0.029 C 
BRANCH  42  43
ATOM     43  C   UNL     1       5.127   6.167  -9.438  0.00  0.00    -0.022 A 
ATOM     44  C   UNL     1       6.414   5.650  -9.404  0.00  0.00    -0.004 A 
ATOM     45  C   UNL     1       7.430   6.359  -9.997  0.00  0.00    -0.000 A 
ATOM     46  C   UNL     1       7.058   7.409 -10.829  0.00  0.00    -0.000 A 
ATOM     47  C   UNL     1       5.745   7.519 -11.269  0.00  0.00    -0.000 A 
ATOM     48  C   UNL     1       4.734   6.955 -10.501  0.00  0.00    -0.004 A 
ENDBRANCH  42  43
ENDBRANCH  41  42
ENDBRANCH  30  41
ENDBRANCH  28  30
ENDBRANCH   1  27
BRANCH   1  49
ATOM     49  C   UNL     1      -1.856   6.164  -5.644  0.00  0.00    +0.031 C 
BRANCH  49  51
ATOM     50  C   UNL     1      -1.350   8.242  -4.733  0.00  0.00    +0.000 C 
ATOM     51  C   UNL     1      -2.055   7.293  -4.718  0.00  0.00    +0.002 C 
ATOM     52  C   UNL     1      -2.747   6.807  -3.490  0.00  0.00    +0.000 C 
ENDBRANCH  49  51
ENDBRANCH   1  49
TORSDOF 20
ENDMDL
MODEL 2
REMARK VINA RESULT:      -8.4      1.354      1.689
REMARK  Name = 
REMARK  20 active torsions:
REMARK  status: ('A' for Active; 'I' for Inactive)
REMARK    1  A    between atoms: C_2  and  C_4
REMARK    2  A    between atoms: C_4  and  C_5
REMARK    3  A    between atoms: C_5  and  N_6
REMARK    4  A    between atoms: C_5  and  C_28
REMARK    5  A    between atoms: C_7  and  C_9
REMARK    6  A    between atoms: C_9  and  C_10
REMARK    7  A    between atoms: C_9  and  N_18
REMARK    8  A    between atoms: C_10  and  C_11
REMARK    9  A    between atoms: C_11  and  C_12
REMARK   10  A    between atoms: C_19  and  C_21
REMARK   11  A    between atoms: C_21  and  N_22
REMARK   12  A    between atoms: N_30  and  C_31
REMARK   13  A    between atoms: C_31  and  C_32
REMARK   14  A    between atoms: C_31  and  C_39
REMARK   15  A    between atoms: C_32  and  C_33
REMARK   16  A    between atoms: N_41  and  C_42
REMARK   17  A    between atoms: C_42  and  C_43
REMARK   18  A    between atoms: C_42  and  C_47
REMARK   19  A    between atoms: C_43  and  C_44
REMARK   20  A    between atoms: C_47  and  C_49
REMARK                            x       y       z     vdW  Elec       q    Type
REMARK                         _______ _______ _______ _____ _____    ______ ____
ROOT
ATOM      1  C   UNL     1      -0.647   6.078  -4.921  0.00  0.00    +0.173 C 
ENDROOT
BRANCH   1   2
ATOM      2  C   UNL     1      -0.120   5.141  -3.720  0.00  0.00    +0.262 C 
ATOM      3  N   UNL     1       0.148   5.457  -2.453  0.00  0.00    -0.196 NA
ATOM      4  O   UNL     1       0.723   4.324  -4.219  0.00  0.00    -0.271 OA
BRANCH   3   5
ATOM      5  C   UNL     1       1.600   5.789  -1.917  0.00  0.00    +0.177 C 
BRANCH   5   6
ATOM      6  C   UNL     1       1.160   6.718  -0.681  0.00  0.00    +0.262 C 
ATOM      7  N   UNL     1       1.513   7.969  -0.398  0.00  0.00    -0.198 NA
ATOM      8  O   UNL     1       1.144   5.885   0.286  0.00  0.00    -0.271 OA
BRANCH   7   9
ATOM      9  C   UNL     1       2.199   8.289   0.989  0.00  0.00    +0.155 C 
BRANCH   9  10
ATOM     10  C   UNL     1       1.603   9.781   1.077  0.00  0.00    +0.197 C 
ATOM     11  O   UNL     1       2.212  10.672   0.588  0.00  0.00    -0.292 OA
BRANCH  10  12
ATOM     12  C   UNL     1       0.729   9.906   2.272  0.00  0.00    +0.172 C 
ATOM     13  O   UNL     1      -0.304   8.871   2.405  0.00  0.00    -0.346 OA
ATOM     14  C   UNL     1      -0.721  10.161   2.107  0.00  0.00    +0.177 C 
ATOM     15  C   UNL     1       1.374  10.090   3.627  0.00  0.00    +0.040 C 
ENDBRANCH  10  12
ENDBRANCH   9  10
BRANCH   9  16
ATOM     16  C   UNL     1       3.597   8.761   0.263  0.00  0.00    +0.029 C 
BRANCH  16  17
ATOM     17  C   UNL     1       4.528   7.738   0.763  0.00  0.00    +0.002 C 
ATOM     18  C   UNL     1       4.798   7.669   2.203  0.00  0.00    +0.000 C 
ATOM     19  C   UNL     1       4.823   6.579  -0.080  0.00  0.00    +0.000 C 
ENDBRANCH  16  17
ENDBRANCH   9  16
ENDBRANCH   7   9
ENDBRANCH   5   6
BRANCH   5  20
ATOM     20  C   UNL     1       1.868   6.959  -3.033  0.00  0.00    +0.057 C 
BRANCH  20  21
ATOM     21  C   UNL     1       3.121   6.806  -3.712  0.00  0.00    -0.020 A 
ATOM     22  C   UNL     1       3.883   5.636  -3.751  0.00  0.00    -0.004 A 
ATOM     23  C   UNL     1       5.174   5.611  -4.213  0.00  0.00    -0.000 A 
ATOM     24  C   UNL     1       5.795   6.833  -4.446  0.00  0.00    -0.000 A 
ATOM     25  C   UNL     1       5.175   8.033  -4.117  0.00  0.00    -0.000 A 
ATOM     26  C   UNL     1       3.989   7.869  -3.404  0.00  0.00    -0.004 A 
ENDBRANCH  20  21
ENDBRANCH   5  20
ENDBRANCH   3   5
ENDBRANCH   1   2
BRANCH   1  27
ATOM     27  N   UNL     1      -0.590   5.004  -6.079  0.00  0.00    -0.196 NA
ATOM     28  C   UNL     1      -0.347   5.413  -7.390  0.00  0.00    +0.262 C 
ATOM     29  O   UNL     1      -1.139   6.279  -7.737  0.00  0.00    -0.271 OA
BRANCH  28  30
ATOM     30  C   UNL     1       1.116   5.343  -8.059  0.00  0.00    +0.173 C 
BRANCH  30  31
ATOM     31  N   UNL     1       0.606   5.795  -9.476  0.00  0.00    -0.197 NA
ATOM     32  C   UNL     1       0.698   4.971 -10.569  0.00  0.00    +0.258 C 
ATOM     33  O   UNL     1       0.666   3.739 -10.398  0.00  0.00    -0.272 OA
BRANCH  32  34
ATOM     34  C   UNL     1       0.169   5.495 -11.866  0.00  0.00    +0.160 C 
BRANCH  34  35
ATOM     35  N   UNL     1       1.148   6.308 -12.568  0.00  0.00    -0.261 NA
ATOM     36  C   UNL     1       2.151   5.518 -13.195  0.00  0.00    +0.105 C 
ATOM     37  C   UNL     1       2.777   6.121 -14.413  0.00  0.00    +0.159 C 
ATOM     38  O   UNL     1       1.716   6.450 -15.273  0.00  0.00    -0.351 OA
ATOM     39  C   UNL     1       1.138   7.583 -14.690  0.00  0.00    +0.159 C 
ATOM     40  C   UNL     1       0.473   7.247 -13.398  0.00  0.00    +0.105 C 
ENDBRANCH  34  35
ENDBRANCH  32  34
ENDBRANCH  30  31
BRANCH  30  41
ATOM     41  C   UNL     1       1.573   6.857  -7.598  0.00  0.00    +0.036 C 
BRANCH  41  42
ATOM     42  C   UNL     1       2.980   6.868  -7.221  0.00  0.00    +0.029 C 
BRANCH  42  43
ATOM     43  C   UNL     1       3.943   6.439  -8.237  0.00  0.00    -0.022 A 
ATOM     44  C   UNL     1       4.776   5.382  -7.901  0.00  0.00    -0.004 A 
ATOM     45  C   UNL     1       5.923   5.182  -8.629  0.00  0.00    -0.000 A 
ATOM     46  C   UNL     1       6.035   5.882  -9.826  0.00  0.00    -0.000 A 
ATOM     47  C   UNL     1       4.918   6.490 -10.384  0.00  0.00    -0.000 A 
ATOM     48  C   UNL     1       3.872   6.863  -9.548  0.00  0.00    -0.004 A 
ENDBRANCH  42  43
ENDBRANCH  41  42
ENDBRANCH  30  41
ENDBRANCH  28  30
ENDBRANCH   1  27
BRANCH   1  49
ATOM     49  C   UNL     1      -2.242   5.835  -4.601  0.00  0.00    +0.031 C 
BRANCH  49  51
ATOM     50  C   UNL     1      -2.097   8.103  -4.113  0.00  0.00    +0.000 C 
ATOM     51  C   UNL     1      -2.653   7.077  -3.924  0.00  0.00    +0.002 C 
ATOM     52  C   UNL     1      -3.327   6.737  -2.638  0.00  0.00    +0.000 C 
ENDBRANCH  49  51
ENDBRANCH   1  49
TORSDOF 20
ENDMDL
MODEL 3
REMARK VINA RESULT:      -8.3      2.401     11.308
REMARK  Name = 
REMARK  20 active torsions:
REMARK  status: ('A' for Active; 'I' for Inactive)
REMARK    1  A    between atoms: C_2  and  C_4
REMARK    2  A    between atoms: C_4  and  C_5
REMARK    3  A    between atoms: C_5  and  N_6
REMARK    4  A    between atoms: C_5  and  C_28
REMARK    5  A    between atoms: C_7  and  C_9
REMARK    6  A    between atoms: C_9  and  C_10
REMARK    7  A    between atoms: C_9  and  N_18
REMARK    8  A    between atoms: C_10  and  C_11
REMARK    9  A    between atoms: C_11  and  C_12
REMARK   10  A    between atoms: C_19  and  C_21
REMARK   11  A    between atoms: C_21  and  N_22
REMARK   12  A    between atoms: N_30  and  C_31
REMARK   13  A    between atoms: C_31  and  C_32
REMARK   14  A    between atoms: C_31  and  C_39
REMARK   15  A    between atoms: C_32  and  C_33
REMARK   16  A    between atoms: N_41  and  C_42
REMARK   17  A    between atoms: C_42  and  C_43
REMARK   18  A    between atoms: C_42  and  C_47
REMARK   19  A    between atoms: C_43  and  C_44
REMARK   20  A    between atoms: C_47  and  C_49
REMARK                            x       y       z     vdW  Elec       q    Type
REMARK                         _______ _______ _______ _____ _____    ______ ____
ROOT
ATOM      1  C   UNL     1       0.742   5.197  -4.798  0.00  0.00    +0.173 C 
ENDROOT
BRANCH   1   2
ATOM      2  C   UNL     1       2.084   5.087  -5.684  0.00  0.00    +0.262 C 
ATOM      3  N   UNL     1       2.416   5.733  -6.803  0.00  0.00    -0.196 NA
ATOM      4  O   UNL     1       2.433   3.861  -5.693  0.00  0.00    -0.271 OA
BRANCH   3   5
ATOM      5  C   UNL     1       2.227   5.130  -8.255  0.00  0.00    +0.177 C 
BRANCH   5   6
ATOM      6  C   UNL     1       3.763   5.223  -8.721  0.00  0.00    +0.262 C 
ATOM      7  N   UNL     1       4.370   6.160  -9.442  0.00  0.00    -0.198 NA
ATOM      8  O   UNL     1       4.029   4.007  -9.004  0.00  0.00    -0.271 OA
BRANCH   7   9
ATOM      9  C   UNL     1       5.101   5.758 -10.785  0.00  0.00    +0.155 C 
BRANCH   9  10
ATOM     10  C   UNL     1       6.157   6.969 -10.716  0.00  0.00    +0.197 C 
ATOM     11  O   UNL     1       5.877   8.005 -11.220  0.00  0.00    -0.292 OA
BRANCH  10  12
ATOM     12  C   UNL     1       7.536   6.430 -10.595  0.00  0.00    +0.172 C 
ATOM     13  O   UNL     1       7.689   5.299  -9.671  0.00  0.00    -0.346 OA
ATOM     14  C   UNL     1       8.254   6.512  -9.301  0.00  0.00    +0.177 C 
ATOM     15  C   UNL     1       8.300   6.101 -11.857  0.00  0.00    +0.040 C 
ENDBRANCH  10  12
ENDBRANCH   9  10
BRANCH   9  16
ATOM     16  C   UNL     1       4.019   6.594 -11.700  0.00  0.00    +0.029 C 
BRANCH  16  17
ATOM     17  C   UNL     1       3.849   5.675 -12.837  0.00  0.00    +0.002 C 
ATOM     18  C   UNL     1       2.700   5.858 -13.729  0.00  0.00    +0.000 C 
ATOM     19  C   UNL     1       5.003   4.902 -13.298  0.00  0.00    +0.000 C 
ENDBRANCH  16  17
ENDBRANCH   9  16
ENDBRANCH   7   9
ENDBRANCH   5   6
BRANCH   5  20
ATOM     20  C   UNL     1       1.682   6.539  -8.891  0.00  0.00    +0.057 C 
BRANCH  20  21
ATOM     21  C   UNL     1       1.020   6.363 -10.151  0.00  0.00    -0.020 A 
ATOM     22  C   UNL     1       0.010   7.185 -10.656  0.00  0.00    -0.004 A 
ATOM     23  C   UNL     1      -0.744   6.842 -11.748  0.00  0.00    -0.000 A 
ATOM     24  C   UNL     1      -0.630   5.540 -12.222  0.00  0.00    -0.000 A 
ATOM     25  C   UNL     1       0.132   4.590 -11.549  0.00  0.00    -0.000 A 
ATOM     26  C   UNL     1       0.603   5.030 -10.315  0.00  0.00    -0.004 A 
ENDBRANCH  20  21
ENDBRANCH   5  20
ENDBRANCH   3   5
ENDBRANCH   1   2
BRANCH   1  27
ATOM     27  N   UNL     1       1.284   6.197  -3.701  0.00  0.00    -0.196 NA
ATOM     28  C   UNL     1       0.582   6.361  -2.506  0.00  0.00    +0.262 C 
ATOM     29  O   UNL     1      -0.586   6.654  -2.718  0.00  0.00    -0.271 OA
BRANCH  28  30
ATOM     30  C   UNL     1       0.989   5.589  -1.154  0.00  0.00    +0.173 C 
BRANCH  30  31
ATOM     31  N   UNL     1       1.898   6.761  -0.632  0.00  0.00    -0.197 NA
ATOM     32  C   UNL     1       3.258   6.619  -0.517  0.00  0.00    +0.258 C 
ATOM     33  O   UNL     1       3.847   5.834  -1.281  0.00  0.00    -0.272 OA
BRANCH  32  34
ATOM     34  C   UNL     1       4.028   7.803  -0.025  0.00  0.00    +0.160 C 
BRANCH  34  35
ATOM     35  N   UNL     1       3.177   8.963   0.181  0.00  0.00    -0.261 NA
ATOM     36  C   UNL     1       3.099   9.336   1.551  0.00  0.00    +0.105 C 
ATOM     37  C   UNL     1       2.838  10.787   1.808  0.00  0.00    +0.159 C 
ATOM     38  O   UNL     1       3.826  11.492   1.100  0.00  0.00    -0.351 OA
ATOM     39  C   UNL     1       3.428  11.390  -0.238  0.00  0.00    +0.159 C 
ATOM     40  C   UNL     1       3.550   9.989  -0.734  0.00  0.00    +0.105 C 
ENDBRANCH  34  35
ENDBRANCH  32  34
ENDBRANCH  30  31
BRANCH  30  41
ATOM     41  C   UNL     1      -0.336   6.063  -0.297  0.00  0.00    +0.036 C 
BRANCH  41  42
ATOM     42  C   UNL     1       0.045   7.015   0.738  0.00  0.00    +0.029 C 
BRANCH  42  43
ATOM     43  C   UNL     1      -1.015   7.868   1.278  0.00  0.00    -0.022 A 
ATOM     44  C   UNL     1      -0.786   9.237   1.260  0.00  0.00    -0.004 A 
ATOM     45  C   UNL     1      -1.540  10.047   2.073  0.00  0.00    -0.000 A 
ATOM     46  C   UNL     1      -2.668   9.476   2.653  0.00  0.00    -0.000 A 
ATOM     47  C   UNL     1      -3.158   8.265   2.181  0.00  0.00    -0.000 A 
ATOM     48  C   UNL     1      -2.281   7.390   1.550  0.00  0.00    -0.004 A 
ENDBRANCH  42  43
ENDBRANCH  41  42
ENDBRANCH  30  41
ENDBRANCH  28  30
ENDBRANCH   1  27
BRANCH   1  49
ATOM     49  C   UNL     1       0.061   6.377  -5.719  0.00  0.00    +0.031 C 
BRANCH  49  51
ATOM     50  C   UNL     1      -1.302   5.128  -7.129  0.00  0.00    +0.000 C 
ATOM     51  C   UNL     1      -1.218   5.786  -6.150  0.00  0.00    +0.002 C 
ATOM     52  C   UNL     1      -2.344   6.605  -5.617  0.00  0.00    +0.000 C 
ENDBRANCH  49  51
ENDBRANCH   1  49
TORSDOF 20
ENDMDL
MODEL 4
REMARK VINA RESULT:      -8.3      1.787     10.639
REMARK  Name = 
REMARK  20 active torsions:
REMARK  status: ('A' for Active; 'I' for Inactive)
REMARK    1  A    between atoms: C_2  and  C_4
REMARK    2  A    between atoms: C_4  and  C_5
REMARK    3  A    between atoms: C_5  and  N_6
REMARK    4  A    between atoms: C_5  and  C_28
REMARK    5  A    between atoms: C_7  and  C_9
REMARK    6  A    between atoms: C_9  and  C_10
REMARK    7  A    between atoms: C_9  and  N_18
REMARK    8  A    between atoms: C_10  and  C_11
REMARK    9  A    between atoms: C_11  and  C_12
REMARK   10  A    between atoms: C_19  and  C_21
REMARK   11  A    between atoms: C_21  and  N_22
REMARK   12  A    between atoms: N_30  and  C_31
REMARK   13  A    between atoms: C_31  and  C_32
REMARK   14  A    between atoms: C_31  and  C_39
REMARK   15  A    between atoms: C_32  and  C_33
REMARK   16  A    between atoms: N_41  and  C_42
REMARK   17  A    between atoms: C_42  and  C_43
REMARK   18  A    between atoms: C_42  and  C_47
REMARK   19  A    between atoms: C_43  and  C_44
REMARK   20  A    between atoms: C_47  and  C_49
REMARK                            x       y       z     vdW  Elec       q    Type
REMARK                         _______ _______ _______ _____ _____    ______ ____
ROOT
ATOM      1  C   UNL     1      -0.306   5.057  -5.442  0.00  0.00    +0.173 C 
ENDROOT
BRANCH   1   2
ATOM      2  C   UNL     1       0.344   5.014  -6.916  0.00  0.00    +0.262 C 
ATOM      3  N   UNL     1       1.628   4.999  -7.276  0.00  0.00    -0.196 NA
ATOM      4  O   UNL     1      -0.376   5.749  -7.670  0.00  0.00    -0.271 OA
BRANCH   3   5
ATOM      5  C   UNL     1       2.438   6.292  -7.701  0.00  0.00    +0.177 C 
BRANCH   5   6
ATOM      6  C   UNL     1       2.284   6.120  -9.292  0.00  0.00    +0.262 C 
ATOM      7  N   UNL     1       3.107   5.540 -10.161  0.00  0.00    -0.198 NA
ATOM      8  O   UNL     1       1.773   7.238  -9.632  0.00  0.00    -0.271 OA
BRANCH   7   9
ATOM      9  C   UNL     1       3.667   6.375 -11.380  0.00  0.00    +0.155 C 
BRANCH   9  10
ATOM     10  C   UNL     1       3.023   5.410 -12.495  0.00  0.00    +0.197 C 
ATOM     11  O   UNL     1       3.731   4.927 -13.313  0.00  0.00    -0.292 OA
BRANCH  10  12
ATOM     12  C   UNL     1       1.597   5.768 -12.710  0.00  0.00    +0.172 C 
ATOM     13  O   UNL     1       1.245   6.139 -14.086  0.00  0.00    -0.346 OA
ATOM     14  C   UNL     1       1.233   7.142 -13.128  0.00  0.00    +0.177 C 
ATOM     15  C   UNL     1       0.528   4.832 -12.195  0.00  0.00    +0.040 C 
ENDBRANCH  10  12
ENDBRANCH   9  10
BRANCH   9  16
ATOM     16  C   UNL     1       5.106   5.580 -11.349  0.00  0.00    +0.029 C 
BRANCH  16  17
ATOM     17  C   UNL     1       5.945   6.552 -10.630  0.00  0.00    +0.002 C 
ATOM     18  C   UNL     1       6.921   6.059  -9.653  0.00  0.00    +0.000 C 
ATOM     19  C   UNL     1       6.098   7.898 -11.183  0.00  0.00    +0.000 C 
ENDBRANCH  16  17
ENDBRANCH   9  16
ENDBRANCH   7   9
ENDBRANCH   5   6
BRANCH   5  20
ATOM     20  C   UNL     1       3.900   5.578  -7.507  0.00  0.00    +0.057 C 
BRANCH  20  21
ATOM     21  C   UNL     1       4.472   5.819  -6.214  0.00  0.00    -0.020 A 
ATOM     22  C   UNL     1       4.522   4.897  -5.167  0.00  0.00    -0.004 A 
ATOM     23  C   UNL     1       4.866   5.251  -3.888  0.00  0.00    -0.000 A 
ATOM     24  C   UNL     1       4.957   6.608  -3.601  0.00  0.00    -0.000 A 
ATOM     25  C   UNL     1       4.604   7.571  -4.541  0.00  0.00    -0.000 A 
ATOM     26  C   UNL     1       4.015   7.039  -5.685  0.00  0.00    -0.004 A 
ENDBRANCH  20  21
ENDBRANCH   5  20
ENDBRANCH   3   5
ENDBRANCH   1   2
BRANCH   1  27
ATOM     27  N   UNL     1       1.034   4.982  -4.608  0.00  0.00    -0.196 NA
ATOM     28  C   UNL     1       1.233   5.854  -3.538  0.00  0.00    +0.262 C 
ATOM     29  O   UNL     1       1.086   7.018  -3.883  0.00  0.00    -0.271 OA
BRANCH  28  30
ATOM     30  C   UNL     1       0.956   5.423  -2.012  0.00  0.00    +0.173 C 
BRANCH  30  31
ATOM     31  N   UNL     1       1.869   6.555  -1.415  0.00  0.00    -0.197 NA
ATOM     32  C   UNL     1       2.855   6.277  -0.502  0.00  0.00    +0.258 C 
ATOM     33  O   UNL     1       3.401   5.159  -0.529  0.00  0.00    -0.272 OA
BRANCH  32  34
ATOM     34  C   UNL     1       3.675   7.427  -0.011  0.00  0.00    +0.160 C 
BRANCH  34  35
ATOM     35  N   UNL     1       2.921   8.669   0.006  0.00  0.00    -0.261 NA
ATOM     36  C   UNL     1       2.555   9.057   1.325  0.00  0.00    +0.105 C 
ATOM     37  C   UNL     1       2.387  10.528   1.539  0.00  0.00    +0.159 C 
ATOM     38  O   UNL     1       3.581  11.125   1.100  0.00  0.00    -0.351 OA
ATOM     39  C   UNL     1       3.507  11.055  -0.296  0.00  0.00    +0.159 C 
ATOM     40  C   UNL     1       3.603   9.646  -0.774  0.00  0.00    +0.105 C 
ENDBRANCH  34  35
ENDBRANCH  32  34
ENDBRANCH  30  31
BRANCH  30  41
ATOM     41  C   UNL     1      -0.438   6.286  -1.854  0.00  0.00    +0.036 C 
BRANCH  41  42
ATOM     42  C   UNL     1      -1.145   5.889  -0.644  0.00  0.00    +0.029 C 
BRANCH  42  43
ATOM     43  C   UNL     1      -1.424   6.938   0.337  0.00  0.00    -0.022 A 
ATOM     44  C   UNL     1      -2.049   6.545   1.512  0.00  0.00    -0.004 A 
ATOM     45  C   UNL     1      -2.668   7.496   2.285  0.00  0.00    -0.000 A 
ATOM     46  C   UNL     1      -2.391   8.825   1.984  0.00  0.00    -0.000 A 
ATOM     47  C   UNL     1      -1.317   9.145   1.163  0.00  0.00    -0.000 A 
ATOM     48  C   UNL     1      -0.874   8.201   0.245  0.00  0.00    -0.004 A 
ENDBRANCH  42  43
ENDBRANCH  41  42
ENDBRANCH  30  41
ENDBRANCH  28  30
ENDBRANCH   1  27
BRANCH   1  49
ATOM     49  C   UNL     1      -0.404   6.697  -5.378  0.00  0.00    +0.031 C 
BRANCH  49  51
ATOM     50  C   UNL     1      -2.219   8.000  -4.733  0.00  0.00    +0.000 C 
ATOM     51  C   UNL     1      -1.832   6.950  -5.114  0.00  0.00    +0.002 C 
ATOM     52  C   UNL     1      -2.507   5.661  -4.785  0.00  0.00    +0.000 C 
ENDBRANCH  49  51
ENDBRANCH   1  49
TORSDOF 20
ENDMDL
MODEL 5
REMARK VINA RESULT:      -8.3      2.149      4.007
REMARK  Name = 
REMARK  20 active torsions:
REMARK  status: ('A' for Active; 'I' for Inactive)
REMARK    1  A    between atoms: C_2  and  C_4
REMARK    2  A    between atoms: C_4  and  C_5
REMARK    3  A    between atoms: C_5  and  N_6
REMARK    4  A    between atoms: C_5  and  C_28
REMARK    5  A    between atoms: C_7  and  C_9
REMARK    6  A    between atoms: C_9  and  C_10
REMARK    7  A    between atoms: C_9  and  N_18
REMARK    8  A    between atoms: C_10  and  C_11
REMARK    9  A    between atoms: C_11  and  C_12
REMARK   10  A    between atoms: C_19  and  C_21
REMARK   11  A    between atoms: C_21  and  N_22
REMARK   12  A    between atoms: N_30  and  C_31
REMARK   13  A    between atoms: C_31  and  C_32
REMARK   14  A    between atoms: C_31  and  C_39
REMARK   15  A    between atoms: C_32  and  C_33
REMARK   16  A    between atoms: N_41  and  C_42
REMARK   17  A    between atoms: C_42  and  C_43
REMARK   18  A    between atoms: C_42  and  C_47
REMARK   19  A    between atoms: C_43  and  C_44
REMARK   20  A    between atoms: C_47  and  C_49
REMARK                            x       y       z     vdW  Elec       q    Type
REMARK                         _______ _______ _______ _____ _____    ______ ____
ROOT
ATOM      1  C   UNL     1       2.570   6.137  -7.646  0.00  0.00    +0.173 C 
ENDROOT
BRANCH   1   2
ATOM      2  C   UNL     1       3.123   6.414  -6.157  0.00  0.00    +0.262 C 
ATOM      3  N   UNL     1       2.647   5.992  -4.984  0.00  0.00    -0.196 NA
ATOM      4  O   UNL     1       3.534   7.621  -6.123  0.00  0.00    -0.271 OA
BRANCH   3   5
ATOM      5  C   UNL     1       1.701   6.858  -4.056  0.00  0.00    +0.177 C 
BRANCH   5   6
ATOM      6  C   UNL     1       2.695   6.979  -2.799  0.00  0.00    +0.262 C 
ATOM      7  N   UNL     1       2.449   6.781  -1.507  0.00  0.00    -0.198 NA
ATOM      8  O   UNL     1       3.393   8.001  -3.108  0.00  0.00    -0.271 OA
BRANCH   7   9
ATOM      9  C   UNL     1       2.723   7.946  -0.475  0.00  0.00    +0.155 C 
BRANCH   9  10
ATOM     10  C   UNL     1       3.934   7.180   0.256  0.00  0.00    +0.197 C 
ATOM     11  O   UNL     1       3.965   5.995   0.226  0.00  0.00    -0.292 OA
BRANCH  10  12
ATOM     12  C   UNL     1       4.465   8.015   1.364  0.00  0.00    +0.172 C 
ATOM     13  O   UNL     1       5.741   7.565   1.933  0.00  0.00    -0.346 OA
ATOM     14  C   UNL     1       4.606   7.442   2.722  0.00  0.00    +0.177 C 
ATOM     15  C   UNL     1       4.549   9.512   1.168  0.00  0.00    +0.040 C 
ENDBRANCH  10  12
ENDBRANCH   9  10
BRANCH   9  16
ATOM     16  C   UNL     1       1.580   7.383   0.565  0.00  0.00    +0.029 C 
BRANCH  16  17
ATOM     17  C   UNL     1       0.610   8.489   0.536  0.00  0.00    +0.002 C 
ATOM     18  C   UNL     1      -0.810   8.181   0.343  0.00  0.00    +0.000 C 
ATOM     19  C   UNL     1       0.995   9.780   1.109  0.00  0.00    +0.000 C 
ENDBRANCH  16  17
ENDBRANCH   9  16
ENDBRANCH   7   9
ENDBRANCH   5   6
BRANCH   5  20
ATOM     20  C   UNL     1       0.819   5.569  -3.561  0.00  0.00    +0.057 C 
BRANCH  20  21
ATOM     21  C   UNL     1      -0.572   5.876  -3.391  0.00  0.00    -0.020 A 
ATOM     22  C   UNL     1      -1.182   7.082  -3.741  0.00  0.00    -0.004 A 
ATOM     23  C   UNL     1      -2.455   7.407  -3.346  0.00  0.00    -0.000 A 
ATOM     24  C   UNL     1      -3.058   6.593  -2.394  0.00  0.00    -0.000 A 
ATOM     25  C   UNL     1      -2.360   5.557  -1.783  0.00  0.00    -0.000 A 
ATOM     26  C   UNL     1      -1.002   5.542  -2.095  0.00  0.00    -0.004 A 
ENDBRANCH  20  21
ENDBRANCH   5  20
ENDBRANCH   3   5
ENDBRANCH   1   2
BRANCH   1  27
ATOM     27  N   UNL     1       3.695   5.130  -8.113  0.00  0.00    -0.196 NA
ATOM     28  C   UNL     1       3.684   4.639  -9.419  0.00  0.00    +0.262 C 
ATOM     29  O   UNL     1       2.606   4.130  -9.691  0.00  0.00    -0.271 OA
BRANCH  28  30
ATOM     30  C   UNL     1       4.596   5.272 -10.586  0.00  0.00    +0.173 C 
BRANCH  30  31
ATOM     31  N   UNL     1       3.426   5.286 -11.636  0.00  0.00    -0.197 NA
ATOM     32  C   UNL     1       3.668   5.171 -12.982  0.00  0.00    +0.258 C 
ATOM     33  O   UNL     1       4.671   4.539 -13.361  0.00  0.00    -0.272 OA
BRANCH  32  34
ATOM     34  C   UNL     1       2.482   5.182 -13.893  0.00  0.00    +0.160 C 
BRANCH  34  35
ATOM     35  N   UNL     1       2.167   6.520 -14.365  0.00  0.00    -0.261 NA
ATOM     36  C   UNL     1       3.068   6.958 -15.376  0.00  0.00    +0.105 C 
ATOM     37  C   UNL     1       2.508   7.945 -16.351  0.00  0.00    +0.159 C 
ATOM     38  O   UNL     1       1.340   7.362 -16.869  0.00  0.00    -0.351 OA
ATOM     39  C   UNL     1       0.411   7.470 -15.828  0.00  0.00    +0.159 C 
ATOM     40  C   UNL     1       0.780   6.595 -14.679  0.00  0.00    +0.105 C 
ENDBRANCH  34  35
ENDBRANCH  32  34
ENDBRANCH  30  31
BRANCH  30  41
ATOM     41  C   UNL     1       4.375   6.838 -10.127  0.00  0.00    +0.036 C 
BRANCH  41  42
ATOM     42  C   UNL     1       5.309   7.708 -10.829  0.00  0.00    +0.029 C 
BRANCH  42  43
ATOM     43  C   UNL     1       6.521   7.086 -11.364  0.00  0.00    -0.022 A 
ATOM     44  C   UNL     1       6.719   7.177 -12.735  0.00  0.00    -0.004 A 
ATOM     45  C   UNL     1       7.603   6.317 -13.338  0.00  0.00    -0.000 A 
ATOM     46  C   UNL     1       8.447   5.597 -12.498  0.00  0.00    -0.000 A 
ATOM     47  C   UNL     1       8.590   5.969 -11.167  0.00  0.00    -0.000 A 
ATOM     48  C   UNL     1       7.553   6.660 -10.552  0.00  0.00    -0.004 A 
ENDBRANCH  42  43
ENDBRANCH  41  42
ENDBRANCH  30  41
ENDBRANCH  28  30
ENDBRANCH   1  27
BRANCH   1  49
ATOM     49  C   UNL     1       1.522   4.955  -7.190  0.00  0.00    +0.031 C 
BRANCH  49  51
ATOM     50  C   UNL     1       0.215   6.142  -8.702  0.00  0.00    +0.000 C 
ATOM     51  C   UNL     1       0.252   5.355  -7.821  0.00  0.00    +0.002 C 
ATOM     52  C   UNL     1      -0.863   5.162  -6.850  0.00  0.00    +0.000 C 
ENDBRANCH  49  51
ENDBRANCH   1  49
TORSDOF 20
ENDMDL
MODEL 6
REMARK VINA RESULT:      -8.3      2.125      3.915
REMARK  Name = 
REMARK  20 active torsions:
REMARK  status: ('A' for Active; 'I' for Inactive)
REMARK    1  A    between atoms: C_2  and  C_4
REMARK    2  A    between atoms: C_4  and  C_5
REMARK    3  A    between atoms: C_5  and  N_6
REMARK    4  A    between atoms: C_5  and  C_28
REMARK    5  A    between atoms: C_7  and  C_9
REMARK    6  A    between atoms: C_9  and  C_10
REMARK    7  A    between atoms: C_9  and  N_18
REMARK    8  A    between atoms: C_10  and  C_11
REMARK    9  A    between atoms: C_11  and  C_12
REMARK   10  A    between atoms: C_19  and  C_21
REMARK   11  A    between atoms: C_21  and  N_22
REMARK   12  A    between atoms: N_30  and  C_31
REMARK   13  A    between atoms: C_31  and  C_32
REMARK   14  A    between atoms: C_31  and  C_39
REMARK   15  A    between atoms: C_32  and  C_33
REMARK   16  A    between atoms: N_41  and  C_42
REMARK   17  A    between atoms: C_42  and  C_43
REMARK   18  A    between atoms: C_42  and  C_47
REMARK   19  A    between atoms: C_43  and  C_44
REMARK   20  A    between atoms: C_47  and  C_49
REMARK                            x       y       z     vdW  Elec       q    Type
REMARK                         _______ _______ _______ _____ _____    ______ ____
ROOT
ATOM      1  C   UNL     1       2.128   5.751  -7.197  0.00  0.00    +0.173 C 
ENDROOT
BRANCH   1   2
ATOM      2  C   UNL     1       2.898   6.234  -5.865  0.00  0.00    +0.262 C 
ATOM      3  N   UNL     1       2.648   5.940  -4.588  0.00  0.00    -0.196 NA
ATOM      4  O   UNL     1       3.230   7.453  -6.040  0.00  0.00    -0.271 OA
BRANCH   3   5
ATOM      5  C   UNL     1       1.812   6.871  -3.618  0.00  0.00    +0.177 C 
BRANCH   5   6
ATOM      6  C   UNL     1       2.953   7.095  -2.509  0.00  0.00    +0.262 C 
ATOM      7  N   UNL     1       2.907   6.884  -1.196  0.00  0.00    -0.198 NA
ATOM      8  O   UNL     1       3.501   8.177  -2.906  0.00  0.00    -0.271 OA
BRANCH   7   9
ATOM      9  C   UNL     1       3.208   8.078  -0.206  0.00  0.00    +0.155 C 
BRANCH   9  10
ATOM     10  C   UNL     1       4.333   7.274   0.616  0.00  0.00    +0.197 C 
ATOM     11  O   UNL     1       4.394   6.095   0.503  0.00  0.00    -0.292 OA
BRANCH  10  12
ATOM     12  C   UNL     1       4.698   8.028   1.843  0.00  0.00    +0.172 C 
ATOM     13  O   UNL     1       5.734   7.406   2.677  0.00  0.00    -0.346 OA
ATOM     14  C   UNL     1       4.440   7.442   3.179  0.00  0.00    +0.177 C 
ATOM     15  C   UNL     1       5.027   9.498   1.719  0.00  0.00    +0.040 C 
ENDBRANCH  10  12
ENDBRANCH   9  10
BRANCH   9  16
ATOM     16  C   UNL     1       1.984   7.637   0.801  0.00  0.00    +0.029 C 
BRANCH  16  17
ATOM     17  C   UNL     1       1.103   8.810   0.699  0.00  0.00    +0.002 C 
ATOM     18  C   UNL     1      -0.339   8.632   0.891  0.00  0.00    +0.000 C 
ATOM     19  C   UNL     1       1.687  10.145   0.834  0.00  0.00    +0.000 C 
ENDBRANCH  16  17
ENDBRANCH   9  16
ENDBRANCH   7   9
ENDBRANCH   5   6
BRANCH   5  20
ATOM     20  C   UNL     1       1.018   5.619  -2.918  0.00  0.00    +0.057 C 
BRANCH  20  21
ATOM     21  C   UNL     1      -0.391   5.854  -2.790  0.00  0.00    -0.020 A 
ATOM     22  C   UNL     1      -1.102   6.875  -3.423  0.00  0.00    -0.004 A 
ATOM     23  C   UNL     1      -2.392   7.196  -3.086  0.00  0.00    -0.000 A 
ATOM     24  C   UNL     1      -2.916   6.618  -1.935  0.00  0.00    -0.000 A 
ATOM     25  C   UNL     1      -2.128   5.836  -1.096  0.00  0.00    -0.000 A 
ATOM     26  C   UNL     1      -0.778   5.842  -1.438  0.00  0.00    -0.004 A 
ENDBRANCH  20  21
ENDBRANCH   5  20
ENDBRANCH   3   5
ENDBRANCH   1   2
BRANCH   1  27
ATOM     27  N   UNL     1       2.962   4.436  -7.467  0.00  0.00    -0.196 NA
ATOM     28  C   UNL     1       3.160   3.999  -8.777  0.00  0.00    +0.262 C 
ATOM     29  O   UNL     1       2.096   3.882  -9.369  0.00  0.00    -0.271 OA
BRANCH  28  30
ATOM     30  C   UNL     1       4.510   4.314  -9.597  0.00  0.00    +0.173 C 
BRANCH  30  31
ATOM     31  N   UNL     1       3.805   5.322 -10.576  0.00  0.00    -0.197 NA
ATOM     32  C   UNL     1       4.275   5.535 -11.848  0.00  0.00    +0.258 C 
ATOM     33  O   UNL     1       4.876   4.613 -12.429  0.00  0.00    -0.272 OA
BRANCH  32  34
ATOM     34  C   UNL     1       3.520   6.504 -12.701  0.00  0.00    +0.160 C 
BRANCH  34  35
ATOM     35  N   UNL     1       2.136   6.104 -12.890  0.00  0.00    -0.261 NA
ATOM     36  C   UNL     1       1.225   7.029 -12.309  0.00  0.00    +0.105 C 
ATOM     37  C   UNL     1      -0.121   7.100 -12.958  0.00  0.00    +0.159 C 
ATOM     38  O   UNL     1       0.117   7.343 -14.321  0.00  0.00    -0.351 OA
ATOM     39  C   UNL     1       0.578   6.117 -14.814  0.00  0.00    +0.159 C 
ATOM     40  C   UNL     1       1.921   5.783 -14.261  0.00  0.00    +0.105 C 
ENDBRANCH  34  35
ENDBRANCH  32  34
ENDBRANCH  30  31
BRANCH  30  41
ATOM     41  C   UNL     1       5.048   5.485  -8.572  0.00  0.00    +0.036 C 
BRANCH  41  42
ATOM     42  C   UNL     1       6.502   5.567  -8.615  0.00  0.00    +0.029 C 
BRANCH  42  43
ATOM     43  C   UNL     1       7.107   5.958  -9.889  0.00  0.00    -0.022 A 
ATOM     44  C   UNL     1       6.876   7.257 -10.319  0.00  0.00    -0.004 A 
ATOM     45  C   UNL     1       7.081   7.565 -11.642  0.00  0.00    -0.000 A 
ATOM     46  C   UNL     1       7.770   6.628 -12.404  0.00  0.00    -0.000 A 
ATOM     47  C   UNL     1       8.471   5.602 -11.781  0.00  0.00    -0.000 A 
ATOM     48  C   UNL     1       8.069   5.192 -10.516  0.00  0.00    -0.004 A 
ENDBRANCH  42  43
ENDBRANCH  41  42
ENDBRANCH  30  41
ENDBRANCH  28  30
ENDBRANCH   1  27
BRANCH   1  49
ATOM     49  C   UNL     1       0.924   4.974  -6.391  0.00  0.00    +0.031 C 
BRANCH  49  51
ATOM     50  C   UNL     1      -1.376   5.274  -6.549  0.00  0.00    +0.000 C 
ATOM     51  C   UNL     1      -0.305   5.544  -6.971  0.00  0.00    +0.002 C 
ATOM     52  C   UNL     1      -0.055   5.907  -8.395  0.00  0.00    +0.000 C 
ENDBRANCH  49  51
ENDBRANCH   1  49
TORSDOF 20
ENDMDL
MODEL 7
REMARK VINA RESULT:      -8.3      2.032      4.213
REMARK  Name = 
REMARK  20 active torsions:
REMARK  status: ('A' for Active; 'I' for Inactive)
REMARK    1  A    between atoms: C_2  and  C_4
REMARK    2  A    between atoms: C_4  and  C_5
REMARK    3  A    between atoms: C_5  and  N_6
REMARK    4  A    between atoms: C_5  and  C_28
REMARK    5  A    between atoms: C_7  and  C_9
REMARK    6  A    between atoms: C_9  and  C_10
REMARK    7  A    between atoms: C_9  and  N_18
REMARK    8  A    between atoms: C_10  and  C_11
REMARK    9  A    between atoms: C_11  and  C_12
REMARK   10  A    between atoms: C_19  and  C_21
REMARK   11  A    between atoms: C_21  and  N_22
REMARK   12  A    between atoms: N_30  and  C_31
REMARK   13  A    between atoms: C_31  and  C_32
REMARK   14  A    between atoms: C_31  and  C_39
REMARK   15  A    between atoms: C_32  and  C_33
REMARK   16  A    between atoms: N_41  and  C_42
REMARK   17  A    between atoms: C_42  and  C_43
REMARK   18  A    between atoms: C_42  and  C_47
REMARK   19  A    between atoms: C_43  and  C_44
REMARK   20  A    between atoms: C_47  and  C_49
REMARK                            x       y       z     vdW  Elec       q    Type
REMARK                         _______ _______ _______ _____ _____    ______ ____
ROOT
ATOM      1  C   UNL     1       1.731   6.730  -8.975  0.00  0.00    +0.173 C 
ENDROOT
BRANCH   1   2
ATOM      2  C   UNL     1       1.257   6.843  -7.439  0.00  0.00    +0.262 C 
ATOM      3  N   UNL     1       1.868   6.423  -6.330  0.00  0.00    -0.196 NA
ATOM      4  O   UNL     1      -0.004   6.653  -7.416  0.00  0.00    -0.271 OA
BRANCH   3   5
ATOM      5  C   UNL     1       1.543   5.049  -5.614  0.00  0.00    +0.177 C 
BRANCH   5   6
ATOM      6  C   UNL     1       1.047   5.657  -4.211  0.00  0.00    +0.262 C 
ATOM      7  N   UNL     1       0.027   5.284  -3.443  0.00  0.00    -0.198 NA
ATOM      8  O   UNL     1       1.212   6.910  -4.390  0.00  0.00    -0.271 OA
BRANCH   7   9
ATOM      9  C   UNL     1      -1.096   6.334  -3.077  0.00  0.00    +0.155 C 
BRANCH   9  10
ATOM     10  C   UNL     1      -1.385   5.701  -1.626  0.00  0.00    +0.197 C 
ATOM     11  O   UNL     1      -2.325   4.992  -1.486  0.00  0.00    -0.292 OA
BRANCH  10  12
ATOM     12  C   UNL     1      -0.820   6.580  -0.570  0.00  0.00    +0.172 C 
ATOM     13  O   UNL     1      -1.558   6.589   0.700  0.00  0.00    -0.346 OA
ATOM     14  C   UNL     1      -1.599   7.739  -0.075  0.00  0.00    +0.177 C 
ATOM     15  C   UNL     1       0.653   6.473  -0.248  0.00  0.00    +0.040 C 
ENDBRANCH  10  12
ENDBRANCH   9  10
BRANCH   9  16
ATOM     16  C   UNL     1      -2.261   5.448  -3.828  0.00  0.00    +0.029 C 
BRANCH  16  17
ATOM     17  C   UNL     1      -2.391   6.181  -5.097  0.00  0.00    +0.002 C 
ATOM     18  C   UNL     1      -2.812   5.451  -6.297  0.00  0.00    +0.000 C 
ATOM     19  C   UNL     1      -2.518   7.638  -5.061  0.00  0.00    +0.000 C 
ENDBRANCH  16  17
ENDBRANCH   9  16
ENDBRANCH   7   9
ENDBRANCH   5   6
BRANCH   5  20
ATOM     20  C   UNL     1       3.107   4.753  -5.224  0.00  0.00    +0.057 C 
BRANCH  20  21
ATOM     21  C   UNL     1       3.715   5.829  -4.497  0.00  0.00    -0.020 A 
ATOM     22  C   UNL     1       4.742   6.647  -4.971  0.00  0.00    -0.004 A 
ATOM     23  C   UNL     1       5.440   7.502  -4.157  0.00  0.00    -0.000 A 
ATOM     24  C   UNL     1       5.248   7.380  -2.785  0.00  0.00    -0.000 A 
ATOM     25  C   UNL     1       4.468   6.360  -2.253  0.00  0.00    -0.000 A 
ATOM     26  C   UNL     1       4.062   5.420  -3.197  0.00  0.00    -0.004 A 
ENDBRANCH  20  21
ENDBRANCH   5  20
ENDBRANCH   3   5
ENDBRANCH   1   2
BRANCH   1  27
ATOM     27  N   UNL     1       3.206   6.226  -8.712  0.00  0.00    -0.196 NA
ATOM     28  C   UNL     1       3.741   5.209  -9.504  0.00  0.00    +0.262 C 
ATOM     29  O   UNL     1       3.016   4.223  -9.506  0.00  0.00    -0.271 OA
BRANCH  28  30
ATOM     30  C   UNL     1       4.700   5.509 -10.761  0.00  0.00    +0.173 C 
BRANCH  30  31
ATOM     31  N   UNL     1       3.541   5.366 -11.814  0.00  0.00    -0.197 NA
ATOM     32  C   UNL     1       3.798   5.070 -13.129  0.00  0.00    +0.258 C 
ATOM     33  O   UNL     1       4.810   4.403 -13.409  0.00  0.00    -0.272 OA
BRANCH  32  34
ATOM     34  C   UNL     1       2.620   4.943 -14.043  0.00  0.00    +0.160 C 
BRANCH  34  35
ATOM     35  N   UNL     1       2.062   6.237 -14.399  0.00  0.00    -0.261 NA
ATOM     36  C   UNL     1       2.859   6.920 -15.358  0.00  0.00    +0.105 C 
ATOM     37  C   UNL     1       2.121   7.870 -16.248  0.00  0.00    +0.159 C 
ATOM     38  O   UNL     1       1.077   7.130 -16.826  0.00  0.00    -0.351 OA
ATOM     39  C   UNL     1       0.150   6.973 -15.789  0.00  0.00    +0.159 C 
ATOM     40  C   UNL     1       0.682   6.082 -14.718  0.00  0.00    +0.105 C 
ENDBRANCH  34  35
ENDBRANCH  32  34
ENDBRANCH  30  31
BRANCH  30  41
ATOM     41  C   UNL     1       4.582   7.148 -10.662  0.00  0.00    +0.036 C 
BRANCH  41  42
ATOM     42  C   UNL     1       5.891   7.762 -10.849  0.00  0.00    +0.029 C 
BRANCH  42  43
ATOM     43  C   UNL     1       6.794   7.122 -11.807  0.00  0.00    -0.022 A 
ATOM     44  C   UNL     1       6.597   7.420 -13.147  0.00  0.00    -0.004 A 
ATOM     45  C   UNL     1       7.135   6.590 -14.099  0.00  0.00    -0.000 A 
ATOM     46  C   UNL     1       8.074   5.662 -13.661  0.00  0.00    -0.000 A 
ATOM     47  C   UNL     1       8.648   5.791 -12.403  0.00  0.00    -0.000 A 
ATOM     48  C   UNL     1       7.944   6.468 -11.414  0.00  0.00    -0.004 A 
ENDBRANCH  42  43
ENDBRANCH  41  42
ENDBRANCH  30  41
ENDBRANCH  28  30
ENDBRANCH   1  27
BRANCH   1  49
ATOM     49  C   UNL     1       1.119   5.220  -9.201  0.00  0.00    +0.031 C 
BRANCH  49  51
ATOM     50  C   UNL     1      -0.067   4.458 -11.049  0.00  0.00    +0.000 C 
ATOM     51  C   UNL     1       0.233   5.376 -10.367  0.00  0.00    +0.002 C 
ATOM     52  C   UNL     1       0.328   6.775 -10.875  0.00  0.00    +0.000 C 
ENDBRANCH  49  51
ENDBRANCH   1  49
TORSDOF 20
ENDMDL
MODEL 8
REMARK VINA RESULT:      -8.1      2.878     12.284
REMARK  Name = 
REMARK  20 active torsions:
REMARK  status: ('A' for Active; 'I' for Inactive)
REMARK    1  A    between atoms: C_2  and  C_4
REMARK    2  A    between atoms: C_4  and  C_5
REMARK    3  A    between atoms: C_5  and  N_6
REMARK    4  A    between atoms: C_5  and  C_28
REMARK    5  A    between atoms: C_7  and  C_9
REMARK    6  A    between atoms: C_9  and  C_10
REMARK    7  A    between atoms: C_9  and  N_18
REMARK    8  A    between atoms: C_10  and  C_11
REMARK    9  A    between atoms: C_11  and  C_12
REMARK   10  A    between atoms: C_19  and  C_21
REMARK   11  A    between atoms: C_21  and  N_22
REMARK   12  A    between atoms: N_30  and  C_31
REMARK   13  A    between atoms: C_31  and  C_32
REMARK   14  A    between atoms: C_31  and  C_39
REMARK   15  A    between atoms: C_32  and  C_33
REMARK   16  A    between atoms: N_41  and  C_42
REMARK   17  A    between atoms: C_42  and  C_43
REMARK   18  A    between atoms: C_42  and  C_47
REMARK   19  A    between atoms: C_43  and  C_44
REMARK   20  A    between atoms: C_47  and  C_49
REMARK                            x       y       z     vdW  Elec       q    Type
REMARK                         _______ _______ _______ _____ _____    ______ ____
ROOT
ATOM      1  C   UNL     1       5.368   6.087 -10.600  0.00  0.00    +0.173 C 
ENDROOT
BRANCH   1   2
ATOM      2  C   UNL     1       4.374   5.992 -11.865  0.00  0.00    +0.262 C 
ATOM      3  N   UNL     1       4.655   5.759 -13.148  0.00  0.00    -0.196 NA
ATOM      4  O   UNL     1       3.472   6.879 -11.705  0.00  0.00    -0.271 OA
BRANCH   3   5
ATOM      5  C   UNL     1       4.823   6.900 -14.233  0.00  0.00    +0.177 C 
BRANCH   5   6
ATOM      6  C   UNL     1       3.591   6.475 -15.175  0.00  0.00    +0.262 C 
ATOM      7  N   UNL     1       2.640   7.232 -15.714  0.00  0.00    -0.198 NA
ATOM      8  O   UNL     1       3.228   5.368 -14.654  0.00  0.00    -0.271 OA
BRANCH   7   9
ATOM      9  C   UNL     1       1.123   6.916 -15.403  0.00  0.00    +0.155 C 
BRANCH   9  10
ATOM     10  C   UNL     1       0.561   8.140 -16.282  0.00  0.00    +0.197 C 
ATOM     11  O   UNL     1       0.466   9.210 -15.781  0.00  0.00    -0.292 OA
BRANCH  10  12
ATOM     12  C   UNL     1      -0.325   7.625 -17.357  0.00  0.00    +0.172 C 
ATOM     13  O   UNL     1       0.350   6.863 -18.415  0.00  0.00    -0.346 OA
ATOM     14  C   UNL     1      -0.163   8.110 -18.747  0.00  0.00    +0.177 C 
ATOM     15  C   UNL     1      -1.574   6.867 -16.967  0.00  0.00    +0.040 C 
ENDBRANCH  10  12
ENDBRANCH   9  10
BRANCH   9  16
ATOM     16  C   UNL     1       1.162   7.779 -14.004  0.00  0.00    +0.029 C 
BRANCH  16  17
ATOM     17  C   UNL     1       0.362   6.915 -13.122  0.00  0.00    +0.002 C 
ATOM     18  C   UNL     1       0.557   5.463 -13.186  0.00  0.00    +0.000 C 
ATOM     19  C   UNL     1      -0.271   7.504 -11.941  0.00  0.00    +0.000 C 
ENDBRANCH  16  17
ENDBRANCH   9  16
ENDBRANCH   7   9
ENDBRANCH   5   6
BRANCH   5  20
ATOM     20  C   UNL     1       6.030   6.126 -15.026  0.00  0.00    +0.057 C 
BRANCH  20  21
ATOM     21  C   UNL     1       6.791   6.997 -15.873  0.00  0.00    -0.020 A 
ATOM     22  C   UNL     1       6.397   8.273 -16.283  0.00  0.00    -0.004 A 
ATOM     23  C   UNL     1       7.049   8.964 -17.272  0.00  0.00    -0.000 A 
ATOM     24  C   UNL     1       7.992   8.272 -18.023  0.00  0.00    -0.000 A 
ATOM     25  C   UNL     1       8.189   6.905 -17.854  0.00  0.00    -0.000 A 
ATOM     26  C   UNL     1       7.255   6.310 -17.009  0.00  0.00    -0.004 A 
ENDBRANCH  20  21
ENDBRANCH   5  20
ENDBRANCH   3   5
ENDBRANCH   1   2
BRANCH   1  27
ATOM     27  N   UNL     1       4.879   4.791  -9.839  0.00  0.00    -0.196 NA
ATOM     28  C   UNL     1       4.837   4.782  -8.445  0.00  0.00    +0.262 C 
ATOM     29  O   UNL     1       5.920   5.095  -7.968  0.00  0.00    -0.271 OA
BRANCH  28  30
ATOM     30  C   UNL     1       3.482   5.057  -7.621  0.00  0.00    +0.173 C 
BRANCH  30  31
ATOM     31  N   UNL     1       4.240   5.529  -6.326  0.00  0.00    -0.197 NA
ATOM     32  C   UNL     1       3.725   5.311  -5.073  0.00  0.00    +0.258 C 
ATOM     33  O   UNL     1       2.989   4.325  -4.888  0.00  0.00    -0.272 OA
BRANCH  32  34
ATOM     34  C   UNL     1       4.536   5.788  -3.910  0.00  0.00    +0.160 C 
BRANCH  34  35
ATOM     35  N   UNL     1       3.709   6.389  -2.877  0.00  0.00    -0.261 NA
ATOM     36  C   UNL     1       3.873   5.749  -1.617  0.00  0.00    +0.105 C 
ATOM     37  C   UNL     1       3.629   6.614  -0.421  0.00  0.00    +0.159 C 
ATOM     38  O   UNL     1       4.453   7.740  -0.579  0.00  0.00    -0.351 OA
ATOM     39  C   UNL     1       3.821   8.492  -1.575  0.00  0.00    +0.159 C 
ATOM     40  C   UNL     1       3.884   7.802  -2.896  0.00  0.00    +0.105 C 
ENDBRANCH  34  35
ENDBRANCH  32  34
ENDBRANCH  30  31
BRANCH  30  41
ATOM     41  C   UNL     1       3.253   6.582  -8.198  0.00  0.00    +0.036 C 
BRANCH  41  42
ATOM     42  C   UNL     1       1.865   6.768  -8.601  0.00  0.00    +0.029 C 
BRANCH  42  43
ATOM     43  C   UNL     1       0.836   6.397  -7.628  0.00  0.00    -0.022 A 
ATOM     44  C   UNL     1       0.821   7.103  -6.434  0.00  0.00    -0.004 A 
ATOM     45  C   UNL     1       0.156   6.572  -5.356  0.00  0.00    -0.000 A 
ATOM     46  C   UNL     1      -0.689   5.497  -5.610  0.00  0.00    -0.000 A 
ATOM     47  C   UNL     1      -1.066   5.199  -6.913  0.00  0.00    -0.000 A 
ATOM     48  C   UNL     1      -0.230   5.583  -7.955  0.00  0.00    -0.004 A 
ENDBRANCH  42  43
ENDBRANCH  41  42
ENDBRANCH  30  41
ENDBRANCH  28  30
ENDBRANCH   1  27
BRANCH   1  49
ATOM     49  C   UNL     1       6.622   5.330 -11.348  0.00  0.00    +0.031 C 
BRANCH  49  51
ATOM     50  C   UNL     1       7.655   7.230 -10.497  0.00  0.00    +0.000 C 
ATOM     51  C   UNL     1       7.780   6.187 -11.038  0.00  0.00    +0.002 C 
ATOM     52  C   UNL     1       8.883   5.889 -11.995  0.00  0.00    +0.000 C 
ENDBRANCH  49  51
ENDBRANCH   1  49
TORSDOF 20
ENDMDL
MODEL 9
REMARK VINA RESULT:      -8.1      2.332     10.622
REMARK  Name = 
REMARK  20 active torsions:
REMARK  status: ('A' for Active; 'I' for Inactive)
REMARK    1  A    between atoms: C_2  and  C_4
REMARK    2  A    between atoms: C_4  and  C_5
REMARK    3  A    between atoms: C_5  and  N_6
REMARK    4  A    between atoms: C_5  and  C_28
REMARK    5  A    between atoms: C_7  and  C_9
REMARK    6  A    between atoms: C_9  and  C_10
REMARK    7  A    between atoms: C_9  and  N_18
REMARK    8  A    between atoms: C_10  and  C_11
REMARK    9  A    between atoms: C_11  and  C_12
REMARK   10  A    between atoms: C_19  and  C_21
REMARK   11  A    between atoms: C_21  and  N_22
REMARK   12  A    between atoms: N_30  and  C_31
REMARK   13  A    between atoms: C_31  and  C_32
REMARK   14  A    between atoms: C_31  and  C_39
REMARK   15  A    between atoms: C_32  and  C_33
REMARK   16  A    between atoms: N_41  and  C_42
REMARK   17  A    between atoms: C_42  and  C_43
REMARK   18  A    between atoms: C_42  and  C_47
REMARK   19  A    between atoms: C_43  and  C_44
REMARK   20  A    between atoms: C_47  and  C_49
REMARK                            x       y       z     vdW  Elec       q    Type
REMARK                         _______ _______ _______ _____ _____    ______ ____
ROOT
ATOM      1  C   UNL     1      -0.458   5.409  -4.958  0.00  0.00    +0.173 C 
ENDROOT
BRANCH   1   2
ATOM      2  C   UNL     1       1.003   5.189  -5.602  0.00  0.00    +0.262 C 
ATOM      3  N   UNL     1       1.553   5.766  -6.672  0.00  0.00    -0.196 NA
ATOM      4  O   UNL     1       1.275   3.947  -5.510  0.00  0.00    -0.271 OA
BRANCH   3   5
ATOM      5  C   UNL     1       1.571   5.110  -8.113  0.00  0.00    +0.177 C 
BRANCH   5   6
ATOM      6  C   UNL     1       3.089   5.479  -8.491  0.00  0.00    +0.262 C 
ATOM      7  N   UNL     1       3.551   6.252  -9.470  0.00  0.00    -0.198 NA
ATOM      8  O   UNL     1       3.689   4.370  -8.294  0.00  0.00    -0.271 OA
BRANCH   7   9
ATOM      9  C   UNL     1       4.560   5.651 -10.527  0.00  0.00    +0.155 C 
BRANCH   9  10
ATOM     10  C   UNL     1       5.625   6.847 -10.373  0.00  0.00    +0.197 C 
ATOM     11  O   UNL     1       5.398   7.888 -10.891  0.00  0.00    -0.292 OA
BRANCH  10  12
ATOM     12  C   UNL     1       6.983   6.287 -10.151  0.00  0.00    +0.172 C 
ATOM     13  O   UNL     1       8.068   7.275 -10.100  0.00  0.00    -0.346 OA
ATOM     14  C   UNL     1       8.023   6.427 -11.197  0.00  0.00    +0.177 C 
ATOM     15  C   UNL     1       7.191   5.314  -9.012  0.00  0.00    +0.040 C 
ENDBRANCH  10  12
ENDBRANCH   9  10
BRANCH   9  16
ATOM     16  C   UNL     1       3.767   6.358 -11.783  0.00  0.00    +0.029 C 
BRANCH  16  17
ATOM     17  C   UNL     1       4.066   5.411 -12.868  0.00  0.00    +0.002 C 
ATOM     18  C   UNL     1       3.030   5.129 -13.867  0.00  0.00    +0.000 C 
ATOM     19  C   UNL     1       5.464   5.110 -13.177  0.00  0.00    +0.000 C 
ENDBRANCH  16  17
ENDBRANCH   9  16
ENDBRANCH   7   9
ENDBRANCH   5   6
BRANCH   5  20
ATOM     20  C   UNL     1       0.816   6.379  -8.824  0.00  0.00    +0.057 C 
BRANCH  20  21
ATOM     21  C   UNL     1       0.265   6.054 -10.107  0.00  0.00    -0.020 A 
ATOM     22  C   UNL     1       0.440   4.842 -10.779  0.00  0.00    -0.004 A 
ATOM     23  C   UNL     1       0.089   4.670 -12.093  0.00  0.00    -0.000 A 
ATOM     24  C   UNL     1      -0.250   5.805 -12.820  0.00  0.00    -0.000 A 
ATOM     25  C   UNL     1      -0.131   7.077 -12.271  0.00  0.00    -0.000 A 
ATOM     26  C   UNL     1       0.500   7.089 -11.029  0.00  0.00    -0.004 A 
ENDBRANCH  20  21
ENDBRANCH   5  20
ENDBRANCH   3   5
ENDBRANCH   1   2
BRANCH   1  27
ATOM     27  N   UNL     1      -0.044   6.417  -3.813  0.00  0.00    -0.196 NA
ATOM     28  C   UNL     1      -0.707   6.381  -2.587  0.00  0.00    +0.262 C 
ATOM     29  O   UNL     1      -1.918   6.481  -2.737  0.00  0.00    -0.271 OA
BRANCH  28  30
ATOM     30  C   UNL     1      -0.113   5.608  -1.306  0.00  0.00    +0.173 C 
BRANCH  30  31
ATOM     31  N   UNL     1       1.382   5.923  -1.678  0.00  0.00    -0.197 NA
ATOM     32  C   UNL     1       2.425   5.265  -1.076  0.00  0.00    +0.258 C 
ATOM     33  O   UNL     1       2.247   4.104  -0.664  0.00  0.00    -0.272 OA
BRANCH  32  34
ATOM     34  C   UNL     1       3.807   5.631  -1.514  0.00  0.00    +0.160 C 
BRANCH  34  35
ATOM     35  N   UNL     1       3.809   6.325  -2.792  0.00  0.00    -0.261 NA
ATOM     36  C   UNL     1       4.490   7.573  -2.724  0.00  0.00    +0.105 C 
ATOM     37  C   UNL     1       5.111   8.037  -4.003  0.00  0.00    +0.159 C 
ATOM     38  O   UNL     1       5.932   6.984  -4.442  0.00  0.00    -0.351 OA
ATOM     39  C   UNL     1       5.033   6.025  -4.922  0.00  0.00    +0.159 C 
ATOM     40  C   UNL     1       4.234   5.429  -3.814  0.00  0.00    +0.105 C 
ENDBRANCH  34  35
ENDBRANCH  32  34
ENDBRANCH  30  31
BRANCH  30  41
ATOM     41  C   UNL     1      -0.259   6.881  -0.272  0.00  0.00    +0.036 C 
BRANCH  41  42
ATOM     42  C   UNL     1      -1.091   6.516   0.867  0.00  0.00    +0.029 C 
BRANCH  42  43
ATOM     43  C   UNL     1      -1.766   7.605   1.573  0.00  0.00    -0.022 A 
ATOM     44  C   UNL     1      -2.732   7.245   2.502  0.00  0.00    -0.004 A 
ATOM     45  C   UNL     1      -3.647   8.185   2.909  0.00  0.00    -0.000 A 
ATOM     46  C   UNL     1      -3.376   9.507   2.574  0.00  0.00    -0.000 A 
ATOM     47  C   UNL     1      -2.108   9.870   2.136  0.00  0.00    -0.000 A 
ATOM     48  C   UNL     1      -1.309   8.907   1.533  0.00  0.00    -0.004 A 
ENDBRANCH  42  43
ENDBRANCH  41  42
ENDBRANCH  30  41
ENDBRANCH  28  30
ENDBRANCH   1  27
BRANCH   1  49
ATOM     49  C   UNL     1      -0.901   6.590  -6.013  0.00  0.00    +0.031 C 
BRANCH  49  51
ATOM     50  C   UNL     1      -3.045   7.362  -5.549  0.00  0.00    +0.000 C 
ATOM     51  C   UNL     1      -2.373   6.513  -6.023  0.00  0.00    +0.002 C 
ATOM     52  C   UNL     1      -2.790   5.083  -6.090  0.00  0.00    +0.000 C 
ENDBRANCH  49  51
ENDBRANCH   1  49
TORSDOF 20
ENDMDL
