MODEL 1
REMARK VINA RESULT:      -8.4      0.000      0.000
REMARK  Name = 
REMARK  10 active torsions:
REMARK  status: ('A' for Active; 'I' for Inactive)
REMARK    1  A    between atoms: O_2  and  C_3
REMARK    2  A    between atoms: C_10  and  C_11
REMARK    3  A    between atoms: C_11  and  C_12
REMARK    4  A    between atoms: C_13  and  C_15
REMARK    5  A    between atoms: C_15  and  C_16
REMARK    6  A    between atoms: C_16  and  C_17
REMARK    7  A    between atoms: C_17  and  O_19
REMARK    8  A    between atoms: O_19  and  C_20
REMARK    9  A    between atoms: C_20  and  C_21
REMARK   10  A    between atoms: C_21  and  N_22
REMARK                            x       y       z     vdW  Elec       q    Type
REMARK                         _______ _______ _______ _____ _____    ______ ____
ROOT
ATOM      1  C   UNL     1       4.841   5.551  -6.931  0.00  0.00    -0.030 C 
ATOM      2  C   UNL     1       3.935   5.826  -5.984  0.00  0.00    -0.047 C 
ATOM      3  C   UNL     1       2.958   4.729  -5.694  0.00  0.00    +0.026 C 
ENDROOT
BRANCH   1   4
ATOM      4  C   UNL     1       4.542   4.696  -8.099  0.00  0.00    +0.058 C 
BRANCH   4   6
ATOM      5  C   UNL     1       3.435   5.790 -10.049  0.00  0.00    +0.134 A 
ATOM      6  C   UNL     1       4.598   5.471  -9.378  0.00  0.00    +0.055 A 
ATOM      7  C   UNL     1       5.769   5.522 -10.123  0.00  0.00    +0.201 A 
ATOM      8  O   UNL     1       6.970   5.512  -9.414  0.00  0.00    -0.287 OA
ATOM      9  C   UNL     1       5.762   5.596 -11.509  0.00  0.00    +0.114 A 
ATOM     10  C   UNL     1       6.787   5.218 -12.491  0.00  0.00    +0.344 C 
ATOM     11  O   UNL     1       6.090   4.853 -13.645  0.00  0.00    -0.440 OA
ATOM     12  C   UNL     1       4.734   5.212 -13.539  0.00  0.00    +0.235 C 
ATOM     13  O   UNL     1       7.904   4.707 -12.177  0.00  0.00    -0.245 OA
ATOM     14  C   UNL     1       4.541   5.745 -12.154  0.00  0.00    +0.030 A 
ATOM     15  C   UNL     1       3.353   5.819 -11.435  0.00  0.00    +0.012 A 
ATOM     16  C   UNL     1       2.026   5.753 -12.123  0.00  0.00    +0.034 C 
BRANCH   5  18
ATOM     17  C   UNL     1       2.030   7.310  -8.705  0.00  0.00    +0.252 C 
ATOM     18  O   UNL     1       2.293   6.041  -9.288  0.00  0.00    -0.472 OA
ENDBRANCH   5  18
ENDBRANCH   4   6
ENDBRANCH   1   4
BRANCH   2  19
ATOM     19  C   UNL     1       3.773   7.205  -5.420  0.00  0.00    +0.033 C 
BRANCH  19  20
ATOM     20  C   UNL     1       4.736   7.370  -4.272  0.00  0.00    +0.114 C 
BRANCH  20  21
ATOM     21  C   UNL     1       3.970   7.411  -3.008  0.00  0.00    +0.317 C 
ATOM     22  O   UNL     1       4.038   8.420  -2.273  0.00  0.00    -0.250 OA
BRANCH  21  23
ATOM     23  O   UNL     1       3.200   6.347  -2.540  0.00  0.00    -0.447 OA
BRANCH  23  24
ATOM     24  C   UNL     1       1.843   6.513  -2.136  0.00  0.00    +0.226 C 
BRANCH  24  25
ATOM     25  C   UNL     1       1.312   5.155  -1.695  0.00  0.00    +0.120 C 
BRANCH  25  26
ATOM     26  N   UNL     1      -0.110   5.036  -1.898  0.00  0.00    -0.265 NA
ATOM     27  C   UNL     1      -0.882   5.683  -0.857  0.00  0.00    +0.105 C 
ATOM     28  C   UNL     1      -2.296   5.919  -1.320  0.00  0.00    +0.159 C 
ATOM     29  O   UNL     1      -2.596   4.905  -2.241  0.00  0.00    -0.351 OA
ATOM     30  C   UNL     1      -1.942   5.203  -3.446  0.00  0.00    +0.159 C 
ATOM     31  C   UNL     1      -0.494   5.588  -3.193  0.00  0.00    +0.105 C 
ENDBRANCH  25  26
ENDBRANCH  24  25
ENDBRANCH  23  24
ENDBRANCH  21  23
ENDBRANCH  20  21
ENDBRANCH  19  20
ENDBRANCH   2  19
TORSDOF 10
ENDMDL
MODEL 2
REMARK VINA RESULT:      -8.1      2.649     10.114
REMARK  Name = 
REMARK  10 active torsions:
REMARK  status: ('A' for Active; 'I' for Inactive)
REMARK    1  A    between atoms: O_2  and  C_3
REMARK    2  A    between atoms: C_10  and  C_11
REMARK    3  A    between atoms: C_11  and  C_12
REMARK    4  A    between atoms: C_13  and  C_15
REMARK    5  A    between atoms: C_15  and  C_16
REMARK    6  A    between atoms: C_16  and  C_17
REMARK    7  A    between atoms: C_17  and  O_19
REMARK    8  A    between atoms: O_19  and  C_20
REMARK    9  A    between atoms: C_20  and  C_21
REMARK   10  A    between atoms: C_21  and  N_22
REMARK                            x       y       z     vdW  Elec       q    Type
REMARK                         _______ _______ _______ _____ _____    ______ ____
ROOT
ATOM      1  C   UNL     1       0.903   4.945  -7.360  0.00  0.00    -0.030 C 
ATOM      2  C   UNL     1       1.885   5.487  -8.092  0.00  0.00    -0.047 C 
ATOM      3  C   UNL     1       3.232   4.856  -7.925  0.00  0.00    +0.026 C 
ENDROOT
BRANCH   1   4
ATOM      4  C   UNL     1       1.131   4.375  -6.016  0.00  0.00    +0.058 C 
BRANCH   4   6
ATOM      5  C   UNL     1       1.578   5.725  -3.966  0.00  0.00    +0.134 A 
ATOM      6  C   UNL     1       0.688   5.313  -4.937  0.00  0.00    +0.055 A 
ATOM      7  C   UNL     1      -0.660   5.456  -4.633  0.00  0.00    +0.201 A 
ATOM      8  O   UNL     1      -1.561   5.345  -5.692  0.00  0.00    -0.287 OA
ATOM      9  C   UNL     1      -1.104   5.714  -3.345  0.00  0.00    +0.114 A 
ATOM     10  C   UNL     1      -2.409   5.465  -2.717  0.00  0.00    +0.344 C 
ATOM     11  O   UNL     1      -2.144   5.261  -1.360  0.00  0.00    -0.440 OA
ATOM     12  C   UNL     1      -0.815   5.610  -1.058  0.00  0.00    +0.235 C 
ATOM     13  O   UNL     1      -3.380   4.910  -3.314  0.00  0.00    -0.245 OA
ATOM     14  C   UNL     1      -0.158   5.955  -2.358  0.00  0.00    +0.030 A 
ATOM     15  C   UNL     1       1.202   5.939  -2.646  0.00  0.00    +0.012 A 
ATOM     16  C   UNL     1       2.227   5.973  -1.556  0.00  0.00    +0.034 C 
BRANCH   5  18
ATOM     17  C   UNL     1       3.417   7.083  -4.897  0.00  0.00    +0.252 C 
ATOM     18  O   UNL     1       2.916   5.879  -4.332  0.00  0.00    -0.472 OA
ENDBRANCH   5  18
ENDBRANCH   4   6
ENDBRANCH   1   4
BRANCH   2  19
ATOM     19  C   UNL     1       1.695   6.767  -8.847  0.00  0.00    +0.033 C 
BRANCH  19  20
ATOM     20  C   UNL     1       0.551   6.589  -9.814  0.00  0.00    +0.114 C 
BRANCH  20  21
ATOM     21  C   UNL     1       1.101   6.385 -11.171  0.00  0.00    +0.317 C 
ATOM     22  O   UNL     1       0.533   6.906 -12.156  0.00  0.00    -0.250 OA
BRANCH  21  23
ATOM     23  O   UNL     1       2.207   5.581 -11.441  0.00  0.00    -0.447 OA
BRANCH  23  24
ATOM     24  C   UNL     1       3.293   6.032 -12.247  0.00  0.00    +0.226 C 
BRANCH  24  25
ATOM     25  C   UNL     1       4.508   6.211 -11.345  0.00  0.00    +0.120 C 
BRANCH  25  26
ATOM     26  N   UNL     1       5.690   5.598 -11.897  0.00  0.00    -0.265 NA
ATOM     27  C   UNL     1       5.779   5.745 -13.336  0.00  0.00    +0.105 C 
ATOM     28  C   UNL     1       7.189   5.499 -13.804  0.00  0.00    +0.159 C 
ATOM     29  O   UNL     1       7.765   4.595 -12.899  0.00  0.00    -0.351 OA
ATOM     30  C   UNL     1       8.067   5.292 -11.720  0.00  0.00    +0.159 C 
ATOM     31  C   UNL     1       6.892   6.150 -11.283  0.00  0.00    +0.105 C 
ENDBRANCH  25  26
ENDBRANCH  24  25
ENDBRANCH  23  24
ENDBRANCH  21  23
ENDBRANCH  20  21
ENDBRANCH  19  20
ENDBRANCH   2  19
TORSDOF 10
ENDMDL
MODEL 3
REMARK VINA RESULT:      -7.9      2.025      4.288
REMARK  Name = 
REMARK  10 active torsions:
REMARK  status: ('A' for Active; 'I' for Inactive)
REMARK    1  A    between atoms: O_2  and  C_3
REMARK    2  A    between atoms: C_10  and  C_11
REMARK    3  A    between atoms: C_11  and  C_12
REMARK    4  A    between atoms: C_13  and  C_15
REMARK    5  A    between atoms: C_15  and  C_16
REMARK    6  A    between atoms: C_16  and  C_17
REMARK    7  A    between atoms: C_17  and  O_19
REMARK    8  A    between atoms: O_19  and  C_20
REMARK    9  A    between atoms: C_20  and  C_21
REMARK   10  A    between atoms: C_21  and  N_22
REMARK                            x       y       z     vdW  Elec       q    Type
REMARK                         _______ _______ _______ _____ _____    ______ ____
ROOT
ATOM      1  C   UNL     1      -0.136   5.688  -8.235  0.00  0.00    -0.030 C 
ATOM      2  C   UNL     1      -0.463   5.322  -6.990  0.00  0.00    -0.047 C 
ATOM      3  C   UNL     1       0.609   4.604  -6.230  0.00  0.00    +0.026 C 
ENDROOT
BRANCH   1   4
ATOM      4  C   UNL     1       0.767   4.890  -9.091  0.00  0.00    +0.058 C 
BRANCH   4   6
ATOM      5  C   UNL     1       1.489   6.038 -11.185  0.00  0.00    +0.134 A 
ATOM      6  C   UNL     1       1.716   5.761  -9.853  0.00  0.00    +0.055 A 
ATOM      7  C   UNL     1       3.014   5.957  -9.398  0.00  0.00    +0.201 A 
ATOM      8  O   UNL     1       3.202   5.987  -8.016  0.00  0.00    -0.287 OA
ATOM      9  C   UNL     1       4.083   6.134 -10.265  0.00  0.00    +0.114 A 
ATOM     10  C   UNL     1       5.521   5.912 -10.067  0.00  0.00    +0.344 C 
ATOM     11  O   UNL     1       6.031   5.582 -11.325  0.00  0.00    -0.440 OA
ATOM     12  C   UNL     1       5.074   5.825 -12.327  0.00  0.00    +0.235 C 
ATOM     13  O   UNL     1       6.020   5.466  -8.989  0.00  0.00    -0.245 OA
ATOM     14  C   UNL     1       3.818   6.237 -11.625  0.00  0.00    +0.030 A 
ATOM     15  C   UNL     1       2.517   6.165 -12.110  0.00  0.00    +0.012 A 
ATOM     16  C   UNL     1       2.242   6.049 -13.577  0.00  0.00    +0.034 C 
BRANCH   5  18
ATOM     17  C   UNL     1      -0.555   7.367 -11.568  0.00  0.00    +0.252 C 
ATOM     18  O   UNL     1       0.165   6.143 -11.611  0.00  0.00    -0.472 OA
ENDBRANCH   5  18
ENDBRANCH   4   6
ENDBRANCH   1   4
BRANCH   2  19
ATOM     19  C   UNL     1      -1.867   5.425  -6.476  0.00  0.00    +0.033 C 
BRANCH  19  20
ATOM     20  C   UNL     1      -1.931   6.550  -5.474  0.00  0.00    +0.114 C 
BRANCH  20  21
ATOM     21  C   UNL     1      -1.812   5.985  -4.114  0.00  0.00    +0.317 C 
ATOM     22  O   UNL     1      -2.701   5.220  -3.679  0.00  0.00    -0.250 OA
BRANCH  21  23
ATOM     23  O   UNL     1      -0.776   6.303  -3.236  0.00  0.00    -0.447 OA
BRANCH  23  24
ATOM     24  C   UNL     1       0.072   5.305  -2.673  0.00  0.00    +0.226 C 
BRANCH  24  25
ATOM     25  C   UNL     1       1.376   5.974  -2.257  0.00  0.00    +0.120 C 
BRANCH  25  26
ATOM     26  N   UNL     1       2.409   5.814  -3.250  0.00  0.00    -0.265 NA
ATOM     27  C   UNL     1       2.720   7.050  -3.940  0.00  0.00    +0.105 C 
ATOM     28  C   UNL     1       4.060   6.949  -4.622  0.00  0.00    +0.159 C 
ATOM     29  O   UNL     1       4.247   5.598  -4.950  0.00  0.00    -0.351 OA
ATOM     30  C   UNL     1       4.571   4.904  -3.775  0.00  0.00    +0.159 C 
ATOM     31  C   UNL     1       3.626   5.282  -2.647  0.00  0.00    +0.105 C 
ENDBRANCH  25  26
ENDBRANCH  24  25
ENDBRANCH  23  24
ENDBRANCH  21  23
ENDBRANCH  20  21
ENDBRANCH  19  20
ENDBRANCH   2  19
TORSDOF 10
ENDMDL
MODEL 4
REMARK VINA RESULT:      -7.8      2.719      9.236
REMARK  Name = 
REMARK  10 active torsions:
REMARK  status: ('A' for Active; 'I' for Inactive)
REMARK    1  A    between atoms: O_2  and  C_3
REMARK    2  A    between atoms: C_10  and  C_11
REMARK    3  A    between atoms: C_11  and  C_12
REMARK    4  A    between atoms: C_13  and  C_15
REMARK    5  A    between atoms: C_15  and  C_16
REMARK    6  A    between atoms: C_16  and  C_17
REMARK    7  A    between atoms: C_17  and  O_19
REMARK    8  A    between atoms: O_19  and  C_20
REMARK    9  A    between atoms: C_20  and  C_21
REMARK   10  A    between atoms: C_21  and  N_22
REMARK                            x       y       z     vdW  Elec       q    Type
REMARK                         _______ _______ _______ _____ _____    ______ ____
ROOT
ATOM      1  C   UNL     1       1.300   5.430  -7.594  0.00  0.00    -0.030 C 
ATOM      2  C   UNL     1       2.362   5.281  -8.396  0.00  0.00    -0.047 C 
ATOM      3  C   UNL     1       2.873   3.880  -8.529  0.00  0.00    +0.026 C 
ENDROOT
BRANCH   1   4
ATOM      4  C   UNL     1       1.087   4.602  -6.389  0.00  0.00    +0.058 C 
BRANCH   4   6
ATOM      5  C   UNL     1       1.592   5.727  -4.220  0.00  0.00    +0.134 A 
ATOM      6  C   UNL     1       0.680   5.434  -5.213  0.00  0.00    +0.055 A 
ATOM      7  C   UNL     1      -0.660   5.573  -4.875  0.00  0.00    +0.201 A 
ATOM      8  O   UNL     1      -1.578   5.588  -5.925  0.00  0.00    -0.287 OA
ATOM      9  C   UNL     1      -1.081   5.707  -3.559  0.00  0.00    +0.114 A 
ATOM     10  C   UNL     1      -2.381   5.422  -2.939  0.00  0.00    +0.344 C 
ATOM     11  O   UNL     1      -2.102   5.076  -1.615  0.00  0.00    -0.440 OA
ATOM     12  C   UNL     1      -0.761   5.365  -1.300  0.00  0.00    +0.235 C 
ATOM     13  O   UNL     1      -3.373   4.951  -3.573  0.00  0.00    -0.245 OA
ATOM     14  C   UNL     1      -0.116   5.827  -2.568  0.00  0.00    +0.030 A 
ATOM     15  C   UNL     1       1.239   5.813  -2.879  0.00  0.00    +0.012 A 
ATOM     16  C   UNL     1       2.280   5.716  -1.808  0.00  0.00    +0.034 C 
BRANCH   5  18
ATOM     17  C   UNL     1       3.427   7.110  -5.122  0.00  0.00    +0.252 C 
ATOM     18  O   UNL     1       2.928   5.891  -4.590  0.00  0.00    -0.472 OA
ENDBRANCH   5  18
ENDBRANCH   4   6
ENDBRANCH   1   4
BRANCH   2  19
ATOM     19  C   UNL     1       3.116   6.457  -8.939  0.00  0.00    +0.033 C 
BRANCH  19  20
ATOM     20  C   UNL     1       4.479   5.988  -9.383  0.00  0.00    +0.114 C 
BRANCH  20  21
ATOM     21  C   UNL     1       4.609   6.212 -10.839  0.00  0.00    +0.317 C 
ATOM     22  O   UNL     1       5.205   7.227 -11.261  0.00  0.00    -0.250 OA
BRANCH  21  23
ATOM     23  O   UNL     1       4.045   5.373 -11.799  0.00  0.00    -0.447 OA
BRANCH  23  24
ATOM     24  C   UNL     1       4.018   5.717 -13.182  0.00  0.00    +0.226 C 
BRANCH  24  25
ATOM     25  C   UNL     1       2.569   5.674 -13.651  0.00  0.00    +0.120 C 
BRANCH  25  26
ATOM     26  N   UNL     1       1.642   5.930 -12.577  0.00  0.00    -0.265 NA
ATOM     27  C   UNL     1       0.955   7.197 -12.720  0.00  0.00    +0.105 C 
ATOM     28  C   UNL     1      -0.281   7.226 -11.859  0.00  0.00    +0.159 C 
ATOM     29  O   UNL     1      -0.028   6.395 -10.758  0.00  0.00    -0.351 OA
ATOM     30  C   UNL     1      -0.116   5.062 -11.187  0.00  0.00    +0.159 C 
ATOM     31  C   UNL     1       0.658   4.859 -12.479  0.00  0.00    +0.105 C 
ENDBRANCH  25  26
ENDBRANCH  24  25
ENDBRANCH  23  24
ENDBRANCH  21  23
ENDBRANCH  20  21
ENDBRANCH  19  20
ENDBRANCH   2  19
TORSDOF 10
ENDMDL
MODEL 5
REMARK VINA RESULT:      -7.8      3.347      8.994
REMARK  Name = 
REMARK  10 active torsions:
REMARK  status: ('A' for Active; 'I' for Inactive)
REMARK    1  A    between atoms: O_2  and  C_3
REMARK    2  A    between atoms: C_10  and  C_11
REMARK    3  A    between atoms: C_11  and  C_12
REMARK    4  A    between atoms: C_13  and  C_15
REMARK    5  A    between atoms: C_15  and  C_16
REMARK    6  A    between atoms: C_16  and  C_17
REMARK    7  A    between atoms: C_17  and  O_19
REMARK    8  A    between atoms: O_19  and  C_20
REMARK    9  A    between atoms: C_20  and  C_21
REMARK   10  A    between atoms: C_21  and  N_22
REMARK                            x       y       z     vdW  Elec       q    Type
REMARK                         _______ _______ _______ _____ _____    ______ ____
ROOT
ATOM      1  C   UNL     1       1.022   6.089 -10.530  0.00  0.00    -0.030 C 
ATOM      2  C   UNL     1       0.565   6.786 -11.577  0.00  0.00    -0.047 C 
ATOM      3  C   UNL     1      -0.805   7.368 -11.412  0.00  0.00    +0.026 C 
ENDROOT
BRANCH   1   4
ATOM      4  C   UNL     1       0.138   5.289  -9.656  0.00  0.00    +0.058 C 
BRANCH   4   6
ATOM      5  C   UNL     1       0.056   5.778  -7.210  0.00  0.00    +0.134 A 
ATOM      6  C   UNL     1       0.694   5.169  -8.271  0.00  0.00    +0.055 A 
ATOM      7  C   UNL     1       2.026   4.827  -8.072  0.00  0.00    +0.201 A 
ATOM      8  O   UNL     1       2.596   3.947  -8.991  0.00  0.00    -0.287 OA
ATOM      9  C   UNL     1       2.763   5.318  -7.004  0.00  0.00    +0.114 A 
ATOM     10  C   UNL     1       4.214   5.472  -6.836  0.00  0.00    +0.344 C 
ATOM     11  O   UNL     1       4.383   6.560  -5.975  0.00  0.00    -0.440 OA
ATOM     12  C   UNL     1       3.153   6.932  -5.401  0.00  0.00    +0.235 C 
ATOM     13  O   UNL     1       5.060   5.174  -7.733  0.00  0.00    -0.245 OA
ATOM     14  C   UNL     1       2.107   6.077  -6.044  0.00  0.00    +0.030 A 
ATOM     15  C   UNL     1       0.746   6.342  -6.144  0.00  0.00    +0.012 A 
ATOM     16  C   UNL     1       0.081   7.336  -5.245  0.00  0.00    +0.034 C 
BRANCH   5  18
ATOM     17  C   UNL     1      -2.171   5.175  -6.334  0.00  0.00    +0.252 C 
ATOM     18  O   UNL     1      -1.336   5.867  -7.252  0.00  0.00    -0.472 OA
ENDBRANCH   5  18
ENDBRANCH   4   6
ENDBRANCH   1   4
BRANCH   2  19
ATOM     19  C   UNL     1       1.278   6.795 -12.895  0.00  0.00    +0.033 C 
BRANCH  19  20
ATOM     20  C   UNL     1       1.044   5.469 -13.575  0.00  0.00    +0.114 C 
BRANCH  20  21
ATOM     21  C   UNL     1       2.313   5.014 -14.182  0.00  0.00    +0.317 C 
ATOM     22  O   UNL     1       2.456   3.811 -14.494  0.00  0.00    -0.250 OA
BRANCH  21  23
ATOM     23  O   UNL     1       3.413   5.847 -14.381  0.00  0.00    -0.447 OA
BRANCH  23  24
ATOM     24  C   UNL     1       4.704   5.534 -13.864  0.00  0.00    +0.226 C 
BRANCH  24  25
ATOM     25  C   UNL     1       4.616   5.536 -12.344  0.00  0.00    +0.120 C 
BRANCH  25  26
ATOM     26  N   UNL     1       5.915   5.442 -11.724  0.00  0.00    -0.265 NA
ATOM     27  C   UNL     1       6.985   5.278 -12.687  0.00  0.00    +0.105 C 
ATOM     28  C   UNL     1       8.312   5.623 -12.063  0.00  0.00    +0.159 C 
ATOM     29  O   UNL     1       8.205   5.334 -10.695  0.00  0.00    -0.351 OA
ATOM     30  C   UNL     1       7.435   6.341 -10.095  0.00  0.00    +0.159 C 
ATOM     31  C   UNL     1       6.182   6.620 -10.907  0.00  0.00    +0.105 C 
ENDBRANCH  25  26
ENDBRANCH  24  25
ENDBRANCH  23  24
ENDBRANCH  21  23
ENDBRANCH  20  21
ENDBRANCH  19  20
ENDBRANCH   2  19
TORSDOF 10
ENDMDL
MODEL 6
REMARK VINA RESULT:      -7.8      2.979      9.826
REMARK  Name = 
REMARK  10 active torsions:
REMARK  status: ('A' for Active; 'I' for Inactive)
REMARK    1  A    between atoms: O_2  and  C_3
REMARK    2  A    between atoms: C_10  and  C_11
REMARK    3  A    between atoms: C_11  and  C_12
REMARK    4  A    between atoms: C_13  and  C_15
REMARK    5  A    between atoms: C_15  and  C_16
REMARK    6  A    between atoms: C_16  and  C_17
REMARK    7  A    between atoms: C_17  and  O_19
REMARK    8  A    between atoms: O_19  and  C_20
REMARK    9  A    between atoms: C_20  and  C_21
REMARK   10  A    between atoms: C_21  and  N_22
REMARK                            x       y       z     vdW  Elec       q    Type
REMARK                         _______ _______ _______ _____ _____    ______ ____
ROOT
ATOM      1  C   UNL     1       0.981   5.406  -7.409  0.00  0.00    -0.030 C 
ATOM      2  C   UNL     1      -0.121   5.457  -8.167  0.00  0.00    -0.047 C 
ATOM      3  C   UNL     1      -1.410   5.230  -7.440  0.00  0.00    +0.026 C 
ENDROOT
BRANCH   1   4
ATOM      4  C   UNL     1       1.107   4.510  -6.241  0.00  0.00    +0.058 C 
BRANCH   4   6
ATOM      5  C   UNL     1       3.028   5.262  -4.837  0.00  0.00    +0.134 A 
ATOM      6  C   UNL     1       1.665   5.228  -5.052  0.00  0.00    +0.055 A 
ATOM      7  C   UNL     1       0.863   5.502  -3.951  0.00  0.00    +0.201 A 
ATOM      8  O   UNL     1      -0.480   5.779  -4.202  0.00  0.00    -0.287 OA
ATOM      9  C   UNL     1       1.364   5.518  -2.657  0.00  0.00    +0.114 A 
ATOM     10  C   UNL     1       0.685   5.333  -1.368  0.00  0.00    +0.344 C 
ATOM     11  O   UNL     1       1.641   4.781  -0.512  0.00  0.00    -0.440 OA
ATOM     12  C   UNL     1       2.921   4.842  -1.094  0.00  0.00    +0.235 C 
ATOM     13  O   UNL     1      -0.554   5.088  -1.256  0.00  0.00    -0.245 OA
ATOM     14  C   UNL     1       2.734   5.375  -2.480  0.00  0.00    +0.030 A 
ATOM     15  C   UNL     1       3.587   5.218  -3.566  0.00  0.00    +0.012 A 
ATOM     16  C   UNL     1       5.023   4.841  -3.377  0.00  0.00    +0.034 C 
BRANCH   5  18
ATOM     17  C   UNL     1       4.303   6.504  -6.546  0.00  0.00    +0.252 C 
ATOM     18  O   UNL     1       3.863   5.290  -5.954  0.00  0.00    -0.472 OA
ENDBRANCH   5  18
ENDBRANCH   4   6
ENDBRANCH   1   4
BRANCH   2  19
ATOM     19  C   UNL     1      -0.052   5.513  -9.663  0.00  0.00    +0.033 C 
BRANCH  19  20
ATOM     20  C   UNL     1       0.875   6.635 -10.058  0.00  0.00    +0.114 C 
BRANCH  20  21
ATOM     21  C   UNL     1       1.212   6.493 -11.491  0.00  0.00    +0.317 C 
ATOM     22  O   UNL     1       0.367   6.801 -12.361  0.00  0.00    -0.250 OA
BRANCH  21  23
ATOM     23  O   UNL     1       2.420   5.970 -11.949  0.00  0.00    -0.447 OA
BRANCH  23  24
ATOM     24  C   UNL     1       3.460   5.573 -11.059  0.00  0.00    +0.226 C 
BRANCH  24  25
ATOM     25  C   UNL     1       4.641   6.513 -11.263  0.00  0.00    +0.120 C 
BRANCH  25  26
ATOM     26  N   UNL     1       5.800   5.825 -11.776  0.00  0.00    -0.265 NA
ATOM     27  C   UNL     1       5.766   5.664 -13.215  0.00  0.00    +0.105 C 
ATOM     28  C   UNL     1       7.143   5.358 -13.743  0.00  0.00    +0.159 C 
ATOM     29  O   UNL     1       7.829   4.684 -12.722  0.00  0.00    -0.351 OA
ATOM     30  C   UNL     1       8.195   5.624 -11.748  0.00  0.00    +0.159 C 
ATOM     31  C   UNL     1       7.022   6.527 -11.401  0.00  0.00    +0.105 C 
ENDBRANCH  25  26
ENDBRANCH  24  25
ENDBRANCH  23  24
ENDBRANCH  21  23
ENDBRANCH  20  21
ENDBRANCH  19  20
ENDBRANCH   2  19
TORSDOF 10
ENDMDL
MODEL 7
REMARK VINA RESULT:      -7.7      2.678      9.523
REMARK  Name = 
REMARK  10 active torsions:
REMARK  status: ('A' for Active; 'I' for Inactive)
REMARK    1  A    between atoms: O_2  and  C_3
REMARK    2  A    between atoms: C_10  and  C_11
REMARK    3  A    between atoms: C_11  and  C_12
REMARK    4  A    between atoms: C_13  and  C_15
REMARK    5  A    between atoms: C_15  and  C_16
REMARK    6  A    between atoms: C_16  and  C_17
REMARK    7  A    between atoms: C_17  and  O_19
REMARK    8  A    between atoms: O_19  and  C_20
REMARK    9  A    between atoms: C_20  and  C_21
REMARK   10  A    between atoms: C_21  and  N_22
REMARK                            x       y       z     vdW  Elec       q    Type
REMARK                         _______ _______ _______ _____ _____    ______ ____
ROOT
ATOM      1  C   UNL     1      -2.042   7.482  -1.908  0.00  0.00    -0.030 C 
ATOM      2  C   UNL     1      -2.526   7.047  -3.078  0.00  0.00    -0.047 C 
ATOM      3  C   UNL     1      -3.505   5.919  -2.988  0.00  0.00    +0.026 C 
ENDROOT
BRANCH   1   4
ATOM      4  C   UNL     1      -1.813   6.586  -0.755  0.00  0.00    +0.058 C 
BRANCH   4   6
ATOM      5  C   UNL     1       0.235   7.352   0.446  0.00  0.00    +0.134 A 
ATOM      6  C   UNL     1      -0.356   6.467  -0.431  0.00  0.00    +0.055 A 
ATOM      7  C   UNL     1       0.502   5.776  -1.278  0.00  0.00    +0.201 A 
ATOM      8  O   UNL     1      -0.023   4.669  -1.944  0.00  0.00    -0.287 OA
ATOM      9  C   UNL     1       1.827   6.149  -1.452  0.00  0.00    +0.114 A 
ATOM     10  C   UNL     1       2.754   5.891  -2.562  0.00  0.00    +0.344 C 
ATOM     11  O   UNL     1       3.639   6.972  -2.576  0.00  0.00    -0.440 OA
ATOM     12  C   UNL     1       3.489   7.750  -1.413  0.00  0.00    +0.235 C 
ATOM     13  O   UNL     1       2.432   5.258  -3.613  0.00  0.00    -0.245 OA
ATOM     14  C   UNL     1       2.333   7.170  -0.659  0.00  0.00    +0.030 A 
ATOM     15  C   UNL     1       1.538   7.807   0.286  0.00  0.00    +0.012 A 
ATOM     16  C   UNL     1       2.003   9.048   0.982  0.00  0.00    +0.034 C 
BRANCH   5  18
ATOM     17  C   UNL     1      -0.676   7.139   2.729  0.00  0.00    +0.252 C 
ATOM     18  O   UNL     1      -0.538   7.838   1.500  0.00  0.00    -0.472 OA
ENDBRANCH   5  18
ENDBRANCH   4   6
ENDBRANCH   1   4
BRANCH   2  19
ATOM     19  C   UNL     1      -1.959   7.504  -4.388  0.00  0.00    +0.033 C 
BRANCH  19  20
ATOM     20  C   UNL     1      -0.661   6.775  -4.629  0.00  0.00    +0.114 C 
BRANCH  20  21
ATOM     21  C   UNL     1      -0.845   5.833  -5.753  0.00  0.00    +0.317 C 
ATOM     22  O   UNL     1      -1.962   5.737  -6.307  0.00  0.00    -0.250 OA
BRANCH  21  23
ATOM     23  O   UNL     1       0.156   4.977  -6.211  0.00  0.00    -0.447 OA
BRANCH  23  24
ATOM     24  C   UNL     1       1.154   5.404  -7.134  0.00  0.00    +0.226 C 
BRANCH  24  25
ATOM     25  C   UNL     1       2.188   4.292  -7.261  0.00  0.00    +0.120 C 
BRANCH  25  26
ATOM     26  N   UNL     1       3.106   4.525  -8.348  0.00  0.00    -0.265 NA
ATOM     27  C   UNL     1       2.465   5.105  -9.510  0.00  0.00    +0.105 C 
ATOM     28  C   UNL     1       3.490   5.726 -10.422  0.00  0.00    +0.159 C 
ATOM     29  O   UNL     1       4.679   5.002 -10.248  0.00  0.00    -0.351 OA
ATOM     30  C   UNL     1       5.247   5.383  -9.023  0.00  0.00    +0.159 C 
ATOM     31  C   UNL     1       4.200   5.390  -7.922  0.00  0.00    +0.105 C 
ENDBRANCH  25  26
ENDBRANCH  24  25
ENDBRANCH  23  24
ENDBRANCH  21  23
ENDBRANCH  20  21
ENDBRANCH  19  20
ENDBRANCH   2  19
TORSDOF 10
ENDMDL
MODEL 8
REMARK VINA RESULT:      -7.5      1.998      2.409
REMARK  Name = 
REMARK  10 active torsions:
REMARK  status: ('A' for Active; 'I' for Inactive)
REMARK    1  A    between atoms: O_2  and  C_3
REMARK    2  A    between atoms: C_10  and  C_11
REMARK    3  A    between atoms: C_11  and  C_12
REMARK    4  A    between atoms: C_13  and  C_15
REMARK    5  A    between atoms: C_15  and  C_16
REMARK    6  A    between atoms: C_16  and  C_17
REMARK    7  A    between atoms: C_17  and  O_19
REMARK    8  A    between atoms: O_19  and  C_20
REMARK    9  A    between atoms: C_20  and  C_21
REMARK   10  A    between atoms: C_21  and  N_22
REMARK                            x       y       z     vdW  Elec       q    Type
REMARK                         _______ _______ _______ _____ _____    ______ ____
ROOT
ATOM      1  C   UNL     1       4.193   5.407  -7.681  0.00  0.00    -0.030 C 
ATOM      2  C   UNL     1       3.016   5.420  -7.044  0.00  0.00    -0.047 C 
ATOM      3  C   UNL     1       2.277   4.117  -7.037  0.00  0.00    +0.026 C 
ENDROOT
BRANCH   1   4
ATOM      4  C   UNL     1       4.448   4.572  -8.874  0.00  0.00    +0.058 C 
BRANCH   4   6
ATOM      5  C   UNL     1       3.871   5.531 -11.103  0.00  0.00    +0.134 A 
ATOM      6  C   UNL     1       4.778   5.407 -10.071  0.00  0.00    +0.055 A 
ATOM      7  C   UNL     1       6.097   5.719 -10.373  0.00  0.00    +0.201 A 
ATOM      8  O   UNL     1       6.966   5.903  -9.297  0.00  0.00    -0.287 OA
ATOM      9  C   UNL     1       6.544   5.860 -11.680  0.00  0.00    +0.114 A 
ATOM     10  C   UNL     1       7.893   5.736 -12.247  0.00  0.00    +0.344 C 
ATOM     11  O   UNL     1       7.713   5.304 -13.563  0.00  0.00    -0.440 OA
ATOM     12  C   UNL     1       6.357   5.390 -13.931  0.00  0.00    +0.235 C 
ATOM     13  O   UNL     1       8.917   5.433 -11.562  0.00  0.00    -0.245 OA
ATOM     14  C   UNL     1       5.608   5.806 -12.704  0.00  0.00    +0.030 A 
ATOM     15  C   UNL     1       4.258   5.614 -12.435  0.00  0.00    +0.012 A 
ATOM     16  C   UNL     1       3.280   5.331 -13.533  0.00  0.00    +0.034 C 
BRANCH   5  18
ATOM     17  C   UNL     1       1.832   6.677 -10.316  0.00  0.00    +0.252 C 
ATOM     18  O   UNL     1       2.513   5.521 -10.782  0.00  0.00    -0.472 OA
ENDBRANCH   5  18
ENDBRANCH   4   6
ENDBRANCH   1   4
BRANCH   2  19
ATOM     19  C   UNL     1       2.385   6.694  -6.571  0.00  0.00    +0.033 C 
BRANCH  19  20
ATOM     20  C   UNL     1       1.883   6.486  -5.164  0.00  0.00    +0.114 C 
BRANCH  20  21
ATOM     21  C   UNL     1       3.040   6.458  -4.244  0.00  0.00    +0.317 C 
ATOM     22  O   UNL     1       3.688   7.506  -4.028  0.00  0.00    -0.250 OA
BRANCH  21  23
ATOM     23  O   UNL     1       3.506   5.297  -3.629  0.00  0.00    -0.447 OA
BRANCH  23  24
ATOM     24  C   UNL     1       4.155   5.320  -2.360  0.00  0.00    +0.226 C 
BRANCH  24  25
ATOM     25  C   UNL     1       3.252   4.615  -1.356  0.00  0.00    +0.120 C 
BRANCH  25  26
ATOM     26  N   UNL     1       2.561   5.546  -0.498  0.00  0.00    -0.265 NA
ATOM     27  C   UNL     1       3.275   6.796  -0.337  0.00  0.00    +0.105 C 
ATOM     28  C   UNL     1       2.350   7.868   0.176  0.00  0.00    +0.159 C 
ATOM     29  O   UNL     1       1.367   7.224   0.941  0.00  0.00    -0.351 OA
ATOM     30  C   UNL     1       0.473   6.594   0.063  0.00  0.00    +0.159 C 
ATOM     31  C   UNL     1       1.223   5.820  -1.008  0.00  0.00    +0.105 C 
ENDBRANCH  25  26
ENDBRANCH  24  25
ENDBRANCH  23  24
ENDBRANCH  21  23
ENDBRANCH  20  21
ENDBRANCH  19  20
ENDBRANCH   2  19
TORSDOF 10
ENDMDL
MODEL 9
REMARK VINA RESULT:      -7.4      2.744      9.255
REMARK  Name = 
REMARK  10 active torsions:
REMARK  status: ('A' for Active; 'I' for Inactive)
REMARK    1  A    between atoms: O_2  and  C_3
REMARK    2  A    between atoms: C_10  and  C_11
REMARK    3  A    between atoms: C_11  and  C_12
REMARK    4  A    between atoms: C_13  and  C_15
REMARK    5  A    between atoms: C_15  and  C_16
REMARK    6  A    between atoms: C_16  and  C_17
REMARK    7  A    between atoms: C_17  and  O_19
REMARK    8  A    between atoms: O_19  and  C_20
REMARK    9  A    between atoms: C_20  and  C_21
REMARK   10  A    between atoms: C_21  and  N_22
REMARK                            x       y       z     vdW  Elec       q    Type
REMARK                         _______ _______ _______ _____ _____    ______ ____
ROOT
ATOM      1  C   UNL     1       3.138   5.609  -4.386  0.00  0.00    -0.030 C 
ATOM      2  C   UNL     1       4.133   6.072  -5.153  0.00  0.00    -0.047 C 
ATOM      3  C   UNL     1       4.613   7.450  -4.818  0.00  0.00    +0.026 C 
ENDROOT
BRANCH   1   4
ATOM      4  C   UNL     1       2.087   6.485  -3.826  0.00  0.00    +0.058 C 
BRANCH   4   6
ATOM      5  C   UNL     1      -0.038   5.705  -4.873  0.00  0.00    +0.134 A 
ATOM      6  C   UNL     1       0.766   5.786  -3.755  0.00  0.00    +0.055 A 
ATOM      7  C   UNL     1       0.139   5.582  -2.532  0.00  0.00    +0.201 A 
ATOM      8  O   UNL     1       0.962   5.351  -1.431  0.00  0.00    -0.287 OA
ATOM      9  C   UNL     1      -1.242   5.590  -2.399  0.00  0.00    +0.114 A 
ATOM     10  C   UNL     1      -2.088   5.845  -1.226  0.00  0.00    +0.344 C 
ATOM     11  O   UNL     1      -3.275   6.387  -1.724  0.00  0.00    -0.440 OA
ATOM     12  C   UNL     1      -3.330   6.255  -3.124  0.00  0.00    +0.235 C 
ATOM     13  O   UNL     1      -1.628   6.143  -0.082  0.00  0.00    -0.245 OA
ATOM     14  C   UNL     1      -2.014   5.683  -3.550  0.00  0.00    +0.030 A 
ATOM     15  C   UNL     1      -1.424   5.769  -4.806  0.00  0.00    +0.012 A 
ATOM     16  C   UNL     1      -2.233   6.095  -6.022  0.00  0.00    +0.034 C 
BRANCH   5  18
ATOM     17  C   UNL     1       0.991   4.361  -6.669  0.00  0.00    +0.252 C 
ATOM     18  O   UNL     1       0.585   5.605  -6.117  0.00  0.00    -0.472 OA
ENDBRANCH   5  18
ENDBRANCH   4   6
ENDBRANCH   1   4
BRANCH   2  19
ATOM     19  C   UNL     1       4.577   5.354  -6.391  0.00  0.00    +0.033 C 
BRANCH  19  20
ATOM     20  C   UNL     1       4.034   6.089  -7.592  0.00  0.00    +0.114 C 
BRANCH  20  21
ATOM     21  C   UNL     1       4.367   5.322  -8.811  0.00  0.00    +0.317 C 
ATOM     22  O   UNL     1       4.037   4.118  -8.897  0.00  0.00    -0.250 OA
BRANCH  21  23
ATOM     23  O   UNL     1       5.096   5.848  -9.876  0.00  0.00    -0.447 OA
BRANCH  23  24
ATOM     24  C   UNL     1       4.523   6.761 -10.809  0.00  0.00    +0.226 C 
BRANCH  24  25
ATOM     25  C   UNL     1       4.292   6.016 -12.117  0.00  0.00    +0.120 C 
BRANCH  25  26
ATOM     26  N   UNL     1       2.938   5.536 -12.237  0.00  0.00    -0.265 NA
ATOM     27  C   UNL     1       2.001   6.290 -11.429  0.00  0.00    +0.105 C 
ATOM     28  C   UNL     1       0.591   6.061 -11.906  0.00  0.00    +0.159 C 
ATOM     29  O   UNL     1       0.554   4.772 -12.459  0.00  0.00    -0.351 OA
ATOM     30  C   UNL     1       1.182   4.818 -13.713  0.00  0.00    +0.159 C 
ATOM     31  C   UNL     1       2.502   5.565 -13.629  0.00  0.00    +0.105 C 
ENDBRANCH  25  26
ENDBRANCH  24  25
ENDBRANCH  23  24
ENDBRANCH  21  23
ENDBRANCH  20  21
ENDBRANCH  19  20
ENDBRANCH   2  19
TORSDOF 10
ENDMDL
