MODEL 1
REMARK VINA RESULT:      -8.5      0.000      0.000
REMARK  Name = 
REMARK  3 active torsions:
REMARK  status: ('A' for Active; 'I' for Inactive)
REMARK    1  A    between atoms: O_2  and  C_3
REMARK    2  A    between atoms: C_4  and  N_5
REMARK    3  A    between atoms: C_7  and  C_9
REMARK                            x       y       z     vdW  Elec       q    Type
REMARK                         _______ _______ _______ _____ _____    ______ ____
ROOT
ATOM      1  C   UNL     1       4.156   5.634  -3.149  0.00  0.00    +0.178 C 
ATOM      2  C   UNL     1       3.119   5.473  -1.909  0.00  0.00    +0.192 C 
ATOM      3  N   UNL     1       3.019   6.686  -1.165  0.00  0.00    -0.305 N 
ATOM      4  C   UNL     1       1.840   7.338  -0.981  0.00  0.00    +0.077 A 
ATOM      5  C   UNL     1       1.940   8.105   0.172  0.00  0.00    +0.017 A 
ATOM      6  C   UNL     1       0.800   8.584   0.813  0.00  0.00    +0.005 A 
ATOM      7  C   UNL     1       0.605   8.862   2.272  0.00  0.00    +0.142 C 
ATOM      8  N   UNL     1      -0.812   8.967   2.468  0.00  0.00    -0.197 NA
ATOM      9  C   UNL     1      -1.493   8.724   1.230  0.00  0.00    +0.265 C 
ATOM     10  O   UNL     1      -2.737   8.531   1.218  0.00  0.00    -0.268 OA
ATOM     11  C   UNL     1      -0.461   8.288   0.307  0.00  0.00    +0.054 A 
ATOM     12  C   UNL     1      -0.579   7.419  -0.765  0.00  0.00    +0.023 A 
ATOM     13  C   UNL     1      -1.630   6.975  -1.549  0.00  0.00    +0.017 A 
ATOM     14  C   UNL     1      -1.088   5.990  -2.356  0.00  0.00    +0.062 A 
ATOM     15  N   UNL     1       0.220   5.901  -2.064  0.00  0.00    -0.304 N 
ATOM     16  C   UNL     1       1.061   5.038  -3.085  0.00  0.00    +0.208 C 
ATOM     17  C   UNL     1       1.895   6.349  -3.665  0.00  0.00    +0.076 C 
ATOM     18  C   UNL     1      -1.958   5.130  -3.015  0.00  0.00    +0.017 A 
ATOM     19  C   UNL     1      -3.311   5.269  -2.826  0.00  0.00    +0.001 A 
ATOM     20  C   UNL     1      -3.822   6.430  -2.260  0.00  0.00    +0.000 A 
ATOM     21  C   UNL     1      -2.963   7.287  -1.587  0.00  0.00    +0.001 A 
ATOM     22  C   UNL     1       3.272   8.093   0.572  0.00  0.00    +0.017 A 
ATOM     23  C   UNL     1       3.814   8.269   1.842  0.00  0.00    +0.001 A 
ATOM     24  C   UNL     1       4.897   7.540   2.290  0.00  0.00    +0.000 A 
ATOM     25  C   UNL     1       5.778   7.120   1.301  0.00  0.00    +0.001 A 
ATOM     26  C   UNL     1       5.153   6.687   0.137  0.00  0.00    +0.017 A 
ATOM     27  C   UNL     1       0.562   6.955  -1.378  0.00  0.00    +0.078 A 
ATOM     28  C   UNL     1       3.901   7.159  -0.246  0.00  0.00    +0.062 A 
ATOM     29  C   UNL     1       4.059   4.597  -1.051  0.00  0.00    +0.057 C 
ATOM     30  O   UNL     1       2.130   4.685  -2.076  0.00  0.00    -0.319 OA
ATOM     31  C   UNL     1       2.962   5.333  -4.354  0.00  0.00    +0.111 C 
ENDROOT
BRANCH  31  32
ATOM     32  N   UNL     1       3.521   6.334  -5.409  0.00  0.00    -0.273 N 
ATOM     33  C   UNL     1       4.089   5.595  -6.508  0.00  0.00    +0.249 C 
ATOM     34  O   UNL     1       4.304   4.371  -6.504  0.00  0.00    -0.270 OA
ATOM     35  C   UNL     1       2.655   7.404  -5.891  0.00  0.00    +0.115 C 
BRANCH  33  36
ATOM     36  C   UNL     1       4.420   6.284  -7.769  0.00  0.00    +0.054 A 
ATOM     37  C   UNL     1       5.594   5.858  -8.383  0.00  0.00    +0.005 A 
ATOM     38  C   UNL     1       5.714   5.771  -9.765  0.00  0.00    +0.000 A 
ATOM     39  C   UNL     1       4.609   5.966 -10.566  0.00  0.00    +0.000 A 
ATOM     40  C   UNL     1       3.457   6.435  -9.995  0.00  0.00    +0.000 A 
ATOM     41  C   UNL     1       3.336   6.380  -8.635  0.00  0.00    +0.005 A 
ENDBRANCH  33  36
ENDBRANCH  31  32
BRANCH   1  43
ATOM     42  C   UNL     1       4.425   7.310  -3.240  0.00  0.00    +0.174 C 
ATOM     43  O   UNL     1       4.076   7.142  -3.225  0.00  0.00    -0.347 OA
ENDBRANCH   1  43
TORSDOF 3
ENDMDL
MODEL 2
REMARK VINA RESULT:      -8.3      3.328      7.641
REMARK  Name = 
REMARK  3 active torsions:
REMARK  status: ('A' for Active; 'I' for Inactive)
REMARK    1  A    between atoms: O_2  and  C_3
REMARK    2  A    between atoms: C_4  and  N_5
REMARK    3  A    between atoms: C_7  and  C_9
REMARK                            x       y       z     vdW  Elec       q    Type
REMARK                         _______ _______ _______ _____ _____    ______ ____
ROOT
ATOM      1  C   UNL     1       2.619   9.542   2.369  0.00  0.00    +0.178 C 
ATOM      2  C   UNL     1       2.068   8.097   1.869  0.00  0.00    +0.192 C 
ATOM      3  N   UNL     1       0.781   8.221   1.265  0.00  0.00    -0.305 N 
ATOM      4  C   UNL     1       0.529   7.827  -0.011  0.00  0.00    +0.077 A 
ATOM      5  C   UNL     1      -0.826   7.550  -0.123  0.00  0.00    +0.017 A 
ATOM      6  C   UNL     1      -1.314   6.786  -1.181  0.00  0.00    +0.005 A 
ATOM      7  C   UNL     1      -2.513   5.887  -1.200  0.00  0.00    +0.142 C 
ATOM      8  N   UNL     1      -2.369   5.061  -2.363  0.00  0.00    -0.197 NA
ATOM      9  C   UNL     1      -1.136   5.367  -3.027  0.00  0.00    +0.265 C 
ATOM     10  O   UNL     1      -0.694   4.607  -3.928  0.00  0.00    -0.268 OA
ATOM     11  C   UNL     1      -0.440   6.280  -2.138  0.00  0.00    +0.054 A 
ATOM     12  C   UNL     1       0.925   6.440  -1.967  0.00  0.00    +0.023 A 
ATOM     13  C   UNL     1       2.042   6.146  -2.727  0.00  0.00    +0.017 A 
ATOM     14  C   UNL     1       3.122   6.423  -1.906  0.00  0.00    +0.062 A 
ATOM     15  N   UNL     1       2.636   6.883  -0.741  0.00  0.00    -0.304 N 
ATOM     16  C   UNL     1       3.720   7.525   0.211  0.00  0.00    +0.208 C 
ATOM     17  C   UNL     1       3.111   9.058   0.042  0.00  0.00    +0.076 C 
ATOM     18  C   UNL     1       4.366   5.919  -2.265  0.00  0.00    +0.017 A 
ATOM     19  C   UNL     1       4.477   5.149  -3.398  0.00  0.00    +0.001 A 
ATOM     20  C   UNL     1       3.457   5.141  -4.340  0.00  0.00    +0.000 A 
ATOM     21  C   UNL     1       2.207   5.629  -3.985  0.00  0.00    +0.001 A 
ATOM     22  C   UNL     1      -1.445   7.995   1.040  0.00  0.00    +0.017 A 
ATOM     23  C   UNL     1      -2.624   7.556   1.635  0.00  0.00    +0.001 A 
ATOM     24  C   UNL     1      -2.765   7.447   3.004  0.00  0.00    +0.000 A 
ATOM     25  C   UNL     1      -1.993   8.330   3.750  0.00  0.00    +0.001 A 
ATOM     26  C   UNL     1      -0.708   8.516   3.251  0.00  0.00    +0.017 A 
ATOM     27  C   UNL     1       1.382   7.194  -0.911  0.00  0.00    +0.078 A 
ATOM     28  C   UNL     1      -0.412   8.353   1.901  0.00  0.00    +0.062 A 
ATOM     29  C   UNL     1       1.755   7.567   3.286  0.00  0.00    +0.057 C 
ATOM     30  O   UNL     1       2.936   7.249   1.473  0.00  0.00    -0.319 OA
ATOM     31  C   UNL     1       3.992   9.522   1.328  0.00  0.00    +0.111 C 
ENDROOT
BRANCH  31  32
ATOM     32  N   UNL     1       3.996  11.048   1.014  0.00  0.00    -0.273 N 
ATOM     33  C   UNL     1       5.108  11.667   1.687  0.00  0.00    +0.249 C 
ATOM     34  O   UNL     1       5.806  11.118   2.557  0.00  0.00    -0.270 OA
ATOM     35  C   UNL     1       3.922  11.479  -0.378  0.00  0.00    +0.115 C 
BRANCH  33  36
ATOM     36  C   UNL     1       5.519  13.037   1.330  0.00  0.00    +0.054 A 
ATOM     37  C   UNL     1       4.989  14.041   2.135  0.00  0.00    +0.005 A 
ATOM     38  C   UNL     1       5.722  15.170   2.484  0.00  0.00    +0.000 A 
ATOM     39  C   UNL     1       7.059  15.251   2.159  0.00  0.00    +0.000 A 
ATOM     40  C   UNL     1       7.592  14.307   1.325  0.00  0.00    +0.000 A 
ATOM     41  C   UNL     1       6.889  13.154   1.115  0.00  0.00    +0.005 A 
ENDBRANCH  33  36
ENDBRANCH  31  32
BRANCH   1  43
ATOM     42  C   UNL     1       1.540  10.637   1.644  0.00  0.00    +0.174 C 
ATOM     43  O   UNL     1       1.743  10.368   1.453  0.00  0.00    -0.347 OA
ENDBRANCH   1  43
TORSDOF 3
ENDMDL
MODEL 3
REMARK VINA RESULT:      -8.0      3.276      9.542
REMARK  Name = 
REMARK  3 active torsions:
REMARK  status: ('A' for Active; 'I' for Inactive)
REMARK    1  A    between atoms: O_2  and  C_3
REMARK    2  A    between atoms: C_4  and  N_5
REMARK    3  A    between atoms: C_7  and  C_9
REMARK                            x       y       z     vdW  Elec       q    Type
REMARK                         _______ _______ _______ _____ _____    ______ ____
ROOT
ATOM      1  C   UNL     1       2.861   5.471  -4.610  0.00  0.00    +0.178 C 
ATOM      2  C   UNL     1       2.874   4.846  -6.110  0.00  0.00    +0.192 C 
ATOM      3  N   UNL     1       2.125   5.660  -7.010  0.00  0.00    -0.305 N 
ATOM      4  C   UNL     1       2.668   6.205  -8.131  0.00  0.00    +0.077 A 
ATOM      5  C   UNL     1       1.647   6.442  -9.041  0.00  0.00    +0.017 A 
ATOM      6  C   UNL     1       1.926   6.644 -10.391  0.00  0.00    +0.005 A 
ATOM      7  C   UNL     1       1.067   6.316 -11.574  0.00  0.00    +0.142 C 
ATOM      8  N   UNL     1       1.934   6.360 -12.716  0.00  0.00    -0.197 NA
ATOM      9  C   UNL     1       3.274   6.648 -12.297  0.00  0.00    +0.265 C 
ATOM     10  O   UNL     1       4.235   6.499 -13.097  0.00  0.00    -0.268 OA
ATOM     11  C   UNL     1       3.239   6.600 -10.846  0.00  0.00    +0.054 A 
ATOM     12  C   UNL     1       4.252   6.237  -9.974  0.00  0.00    +0.023 A 
ATOM     13  C   UNL     1       5.631   6.166 -10.058  0.00  0.00    +0.017 A 
ATOM     14  C   UNL     1       6.036   5.578  -8.872  0.00  0.00    +0.062 A 
ATOM     15  N   UNL     1       4.935   5.354  -8.135  0.00  0.00    -0.304 N 
ATOM     16  C   UNL     1       5.223   4.959  -6.633  0.00  0.00    +0.208 C 
ATOM     17  C   UNL     1       4.606   6.376  -6.033  0.00  0.00    +0.076 C 
ATOM     18  C   UNL     1       7.328   5.072  -8.798  0.00  0.00    +0.017 A 
ATOM     19  C   UNL     1       8.143   5.148  -9.901  0.00  0.00    +0.001 A 
ATOM     20  C   UNL     1       7.817   5.994 -10.953  0.00  0.00    +0.000 A 
ATOM     21  C   UNL     1       6.525   6.492 -11.043  0.00  0.00    +0.001 A 
ATOM     22  C   UNL     1       0.440   6.245  -8.381  0.00  0.00    +0.017 A 
ATOM     23  C   UNL     1      -0.801   5.886  -8.898  0.00  0.00    +0.001 A 
ATOM     24  C   UNL     1      -1.652   5.018  -8.243  0.00  0.00    +0.000 A 
ATOM     25  C   UNL     1      -1.541   5.014  -6.858  0.00  0.00    +0.001 A 
ATOM     26  C   UNL     1      -0.232   5.097  -6.397  0.00  0.00    +0.017 A 
ATOM     27  C   UNL     1       3.951   6.037  -8.646  0.00  0.00    +0.078 A 
ATOM     28  C   UNL     1       0.773   5.707  -7.141  0.00  0.00    +0.062 A 
ATOM     29  C   UNL     1       1.911   3.681  -5.786  0.00  0.00    +0.057 C 
ATOM     30  O   UNL     1       3.921   4.210  -6.465  0.00  0.00    -0.319 OA
ATOM     31  C   UNL     1       4.567   5.703  -4.553  0.00  0.00    +0.111 C 
ENDROOT
BRANCH  31  32
ATOM     32  N   UNL     1       4.537   7.032  -3.742  0.00  0.00    -0.273 N 
ATOM     33  C   UNL     1       4.457   6.727  -2.336  0.00  0.00    +0.249 C 
ATOM     34  O   UNL     1       4.218   5.601  -1.867  0.00  0.00    -0.270 OA
ATOM     35  C   UNL     1       5.562   8.037  -4.000  0.00  0.00    +0.115 C 
BRANCH  33  36
ATOM     36  C   UNL     1       4.710   7.780  -1.336  0.00  0.00    +0.054 A 
ATOM     37  C   UNL     1       3.737   8.773  -1.266  0.00  0.00    +0.005 A 
ATOM     38  C   UNL     1       3.361   9.354  -0.059  0.00  0.00    +0.000 A 
ATOM     39  C   UNL     1       3.843   8.847   1.128  0.00  0.00    +0.000 A 
ATOM     40  C   UNL     1       4.838   7.908   1.088  0.00  0.00    +0.000 A 
ATOM     41  C   UNL     1       5.084   7.271  -0.096  0.00  0.00    +0.005 A 
ENDBRANCH  33  36
ENDBRANCH  31  32
BRANCH   1  43
ATOM     42  C   UNL     1       2.233   7.035  -4.832  0.00  0.00    +0.174 C 
ATOM     43  O   UNL     1       2.528   6.884  -5.034  0.00  0.00    -0.347 OA
ENDBRANCH   1  43
TORSDOF 3
ENDMDL
MODEL 4
REMARK VINA RESULT:      -6.9      6.341     14.051
REMARK  Name = 
REMARK  3 active torsions:
REMARK  status: ('A' for Active; 'I' for Inactive)
REMARK    1  A    between atoms: O_2  and  C_3
REMARK    2  A    between atoms: C_4  and  N_5
REMARK    3  A    between atoms: C_7  and  C_9
REMARK                            x       y       z     vdW  Elec       q    Type
REMARK                         _______ _______ _______ _____ _____    ______ ____
ROOT
ATOM      1  C   UNL     1       0.174   5.459 -12.795  0.00  0.00    +0.178 C 
ATOM      2  C   UNL     1       1.119   5.322 -14.110  0.00  0.00    +0.192 C 
ATOM      3  N   UNL     1       1.165   6.548 -14.837  0.00  0.00    -0.305 N 
ATOM      4  C   UNL     1       2.327   7.205 -15.094  0.00  0.00    +0.077 A 
ATOM      5  C   UNL     1       2.143   7.992 -16.223  0.00  0.00    +0.017 A 
ATOM      6  C   UNL     1       3.234   8.484 -16.936  0.00  0.00    +0.005 A 
ATOM      7  C   UNL     1       3.324   8.788 -18.400  0.00  0.00    +0.142 C 
ATOM      8  N   UNL     1       4.724   8.899 -18.695  0.00  0.00    -0.197 NA
ATOM      9  C   UNL     1       5.492   8.635 -17.514  0.00  0.00    +0.265 C 
ATOM     10  O   UNL     1       6.734   8.445 -17.594  0.00  0.00    -0.268 OA
ATOM     11  C   UNL     1       4.529   8.182 -16.527  0.00  0.00    +0.054 A 
ATOM     12  C   UNL     1       4.724   7.294 -15.481  0.00  0.00    +0.023 A 
ATOM     13  C   UNL     1       5.829   6.839 -14.783  0.00  0.00    +0.017 A 
ATOM     14  C   UNL     1       5.347   5.839 -13.956  0.00  0.00    +0.062 A 
ATOM     15  N   UNL     1       4.021   5.752 -14.156  0.00  0.00    -0.304 N 
ATOM     16  C   UNL     1       3.256   4.870 -13.092  0.00  0.00    +0.208 C 
ATOM     17  C   UNL     1       2.465   6.170 -12.430  0.00  0.00    +0.076 C 
ATOM     18  C   UNL     1       6.263   4.970 -13.376  0.00  0.00    +0.017 A 
ATOM     19  C   UNL     1       7.599   5.114 -13.660  0.00  0.00    +0.001 A 
ATOM     20  C   UNL     1       8.067   6.286 -14.241  0.00  0.00    +0.000 A 
ATOM     21  C   UNL     1       7.161   7.153 -14.835  0.00  0.00    +0.001 A 
ATOM     22  C   UNL     1       0.787   7.984 -16.526  0.00  0.00    +0.017 A 
ATOM     23  C   UNL     1       0.155   8.181 -17.751  0.00  0.00    +0.001 A 
ATOM     24  C   UNL     1      -0.957   7.458 -18.133  0.00  0.00    +0.000 A 
ATOM     25  C   UNL     1      -1.764   7.019 -17.091  0.00  0.00    +0.001 A 
ATOM     26  C   UNL     1      -1.057   6.567 -15.982  0.00  0.00    +0.017 A 
ATOM     27  C   UNL     1       3.630   6.818 -14.796  0.00  0.00    +0.078 A 
ATOM     28  C   UNL     1       0.218   7.035 -15.682  0.00  0.00    +0.062 A 
ATOM     29  C   UNL     1       0.120   4.459 -14.913  0.00  0.00    +0.057 C 
ATOM     30  O   UNL     1       2.119   4.533 -14.027  0.00  0.00    -0.319 OA
ATOM     31  C   UNL     1       1.451   5.140 -11.684  0.00  0.00    +0.111 C 
ENDROOT
BRANCH  31  32
ATOM     32  N   UNL     1       0.969   6.121 -10.575  0.00  0.00    -0.273 N 
ATOM     33  C   UNL     1       0.268   5.378  -9.559  0.00  0.00    +0.249 C 
ATOM     34  O   UNL     1      -0.091   4.194  -9.666  0.00  0.00    -0.270 OA
ATOM     35  C   UNL     1       1.934   7.038  -9.979  0.00  0.00    +0.115 C 
BRANCH  33  36
ATOM     36  C   UNL     1      -0.035   6.007  -8.260  0.00  0.00    +0.054 A 
ATOM     37  C   UNL     1      -1.235   5.609  -7.677  0.00  0.00    +0.005 A 
ATOM     38  C   UNL     1      -1.369   5.447  -6.303  0.00  0.00    +0.000 A 
ATOM     39  C   UNL     1      -0.261   5.533  -5.488  0.00  0.00    +0.000 A 
ATOM     40  C   UNL     1       0.918   5.974  -6.025  0.00  0.00    +0.000 A 
ATOM     41  C   UNL     1       1.046   5.993  -7.385  0.00  0.00    +0.005 A 
ENDBRANCH  33  36
ENDBRANCH  31  32
BRANCH   1  43
ATOM     42  C   UNL     1      -0.088   7.131 -12.641  0.00  0.00    +0.174 C 
ATOM     43  O   UNL     1       0.258   6.966 -12.699  0.00  0.00    -0.347 OA
ENDBRANCH   1  43
TORSDOF 3
ENDMDL
MODEL 5
REMARK VINA RESULT:      -6.6      2.201      7.915
REMARK  Name = 
REMARK  3 active torsions:
REMARK  status: ('A' for Active; 'I' for Inactive)
REMARK    1  A    between atoms: O_2  and  C_3
REMARK    2  A    between atoms: C_4  and  N_5
REMARK    3  A    between atoms: C_7  and  C_9
REMARK                            x       y       z     vdW  Elec       q    Type
REMARK                         _______ _______ _______ _____ _____    ______ ____
ROOT
ATOM      1  C   UNL     1       2.080   6.248  -0.605  0.00  0.00    +0.178 C 
ATOM      2  C   UNL     1       1.693   5.364  -1.912  0.00  0.00    +0.192 C 
ATOM      3  N   UNL     1       0.689   6.013  -2.690  0.00  0.00    -0.305 N 
ATOM      4  C   UNL     1       0.873   6.341  -3.997  0.00  0.00    +0.077 A 
ATOM      5  C   UNL     1      -0.372   6.425  -4.606  0.00  0.00    +0.017 A 
ATOM      6  C   UNL     1      -0.494   6.379  -5.992  0.00  0.00    +0.005 A 
ATOM      7  C   UNL     1      -1.638   5.855  -6.805  0.00  0.00    +0.142 C 
ATOM      8  N   UNL     1      -1.131   5.682  -8.136  0.00  0.00    -0.197 NA
ATOM      9  C   UNL     1       0.260   6.022  -8.173  0.00  0.00    +0.265 C 
ATOM     10  O   UNL     1       0.961   5.719  -9.175  0.00  0.00    -0.268 OA
ATOM     11  C   UNL     1       0.638   6.236  -6.788  0.00  0.00    +0.054 A 
ATOM     12  C   UNL     1       1.869   6.021  -6.190  0.00  0.00    +0.023 A 
ATOM     13  C   UNL     1       3.170   5.917  -6.650  0.00  0.00    +0.017 A 
ATOM     14  C   UNL     1       3.915   5.546  -5.544  0.00  0.00    +0.062 A 
ATOM     15  N   UNL     1       3.077   5.472  -4.497  0.00  0.00    -0.304 N 
ATOM     16  C   UNL     1       3.793   5.349  -3.094  0.00  0.00    +0.208 C 
ATOM     17  C   UNL     1       3.316   6.860  -2.602  0.00  0.00    +0.076 C 
ATOM     18  C   UNL     1       5.194   5.044  -5.753  0.00  0.00    +0.017 A 
ATOM     19  C   UNL     1       5.662   4.910  -7.038  0.00  0.00    +0.001 A 
ATOM     20  C   UNL     1       5.019   5.557  -8.086  0.00  0.00    +0.000 A 
ATOM     21  C   UNL     1       3.736   6.049  -7.890  0.00  0.00    +0.001 A 
ATOM     22  C   UNL     1      -1.335   6.367  -3.605  0.00  0.00    +0.017 A 
ATOM     23  C   UNL     1      -2.657   5.937  -3.676  0.00  0.00    +0.001 A 
ATOM     24  C   UNL     1      -3.254   5.212  -2.664  0.00  0.00    +0.000 A 
ATOM     25  C   UNL     1      -2.757   5.455  -1.390  0.00  0.00    +0.001 A 
ATOM     26  C   UNL     1      -1.375   5.602  -1.342  0.00  0.00    +0.017 A 
ATOM     27  C   UNL     1       1.963   6.067  -4.818  0.00  0.00    +0.078 A 
ATOM     28  C   UNL     1      -0.645   6.054  -2.437  0.00  0.00    +0.062 A 
ATOM     29  C   UNL     1       0.906   4.289  -1.128  0.00  0.00    +0.057 C 
ATOM     30  O   UNL     1       2.621   4.660  -2.434  0.00  0.00    -0.319 OA
ATOM     31  C   UNL     1       3.723   6.463  -1.078  0.00  0.00    +0.111 C 
ENDROOT
BRANCH  31  32
ATOM     32  N   UNL     1       3.872   7.916  -0.538  0.00  0.00    -0.273 N 
ATOM     33  C   UNL     1       4.547   7.882   0.734  0.00  0.00    +0.249 C 
ATOM     34  O   UNL     1       4.763   6.852   1.395  0.00  0.00    -0.270 OA
ATOM     35  C   UNL     1       4.452   8.934  -1.409  0.00  0.00    +0.115 C 
BRANCH  33  36
ATOM     36  C   UNL     1       5.077   9.125   1.324  0.00  0.00    +0.054 A 
ATOM     37  C   UNL     1       4.114  10.015   1.790  0.00  0.00    +0.005 A 
ATOM     38  C   UNL     1       4.307  10.774   2.939  0.00  0.00    +0.000 A 
ATOM     39  C   UNL     1       5.409  10.551   3.735  0.00  0.00    +0.000 A 
ATOM     40  C   UNL     1       6.396   9.722   3.276  0.00  0.00    +0.000 A 
ATOM     41  C   UNL     1       6.115   8.899   2.222  0.00  0.00    +0.005 A 
ENDBRANCH  33  36
ENDBRANCH  31  32
BRANCH   1  43
ATOM     42  C   UNL     1       1.359   7.758  -0.908  0.00  0.00    +0.174 C 
ATOM     43  O   UNL     1       1.587   7.567  -1.158  0.00  0.00    -0.347 OA
ENDBRANCH   1  43
TORSDOF 3
ENDMDL
MODEL 6
REMARK VINA RESULT:      -6.5      3.517     11.031
REMARK  Name = 
REMARK  3 active torsions:
REMARK  status: ('A' for Active; 'I' for Inactive)
REMARK    1  A    between atoms: O_2  and  C_3
REMARK    2  A    between atoms: C_4  and  N_5
REMARK    3  A    between atoms: C_7  and  C_9
REMARK                            x       y       z     vdW  Elec       q    Type
REMARK                         _______ _______ _______ _____ _____    ______ ____
ROOT
ATOM      1  C   UNL     1       2.687   4.881  -7.155  0.00  0.00    +0.178 C 
ATOM      2  C   UNL     1       3.169   4.390  -8.627  0.00  0.00    +0.192 C 
ATOM      3  N   UNL     1       2.664   5.252  -9.645  0.00  0.00    -0.305 N 
ATOM      4  C   UNL     1       3.473   5.913 -10.515  0.00  0.00    +0.077 A 
ATOM      5  C   UNL     1       2.745   6.192 -11.663  0.00  0.00    +0.017 A 
ATOM      6  C   UNL     1       3.388   6.522 -12.854  0.00  0.00    +0.005 A 
ATOM      7  C   UNL     1       2.928   6.269 -14.257  0.00  0.00    +0.142 C 
ATOM      8  N   UNL     1       4.083   6.444 -15.089  0.00  0.00    -0.197 NA
ATOM      9  C   UNL     1       5.226   6.742 -14.278  0.00  0.00    +0.265 C 
ATOM     10  O   UNL     1       6.384   6.699 -14.771  0.00  0.00    -0.268 OA
ATOM     11  C   UNL     1       4.778   6.566 -12.908  0.00  0.00    +0.054 A 
ATOM     12  C   UNL     1       5.516   6.164 -11.807  0.00  0.00    +0.023 A 
ATOM     13  C   UNL     1       6.863   6.150 -11.490  0.00  0.00    +0.017 A 
ATOM     14  C   UNL     1       6.943   5.475 -10.284  0.00  0.00    +0.062 A 
ATOM     15  N   UNL     1       5.692   5.148  -9.919  0.00  0.00    -0.304 N 
ATOM     16  C   UNL     1       5.558   4.633  -8.432  0.00  0.00    +0.208 C 
ATOM     17  C   UNL     1       4.711   5.969  -7.936  0.00  0.00    +0.076 C 
ATOM     18  C   UNL     1       8.187   5.011  -9.874  0.00  0.00    +0.017 A 
ATOM     19  C   UNL     1       9.279   5.214 -10.681  0.00  0.00    +0.001 A 
ATOM     20  C   UNL     1       9.220   6.136 -11.718  0.00  0.00    +0.000 A 
ATOM     21  C   UNL     1       7.981   6.593 -12.144  0.00  0.00    +0.001 A 
ATOM     22  C   UNL     1       1.413   5.895 -11.401  0.00  0.00    +0.017 A 
ATOM     23  C   UNL     1       0.398   5.538 -12.283  0.00  0.00    +0.001 A 
ATOM     24  C   UNL     1      -0.552   4.586 -11.971  0.00  0.00    +0.000 A 
ATOM     25  C   UNL     1      -0.845   4.464 -10.618  0.00  0.00    +0.001 A 
ATOM     26  C   UNL     1       0.268   4.553  -9.790  0.00  0.00    +0.017 A 
ATOM     27  C   UNL     1       4.857   5.838 -10.644  0.00  0.00    +0.078 A 
ATOM     28  C   UNL     1       1.407   5.262 -10.161  0.00  0.00    +0.062 A 
ATOM     29  C   UNL     1       2.226   3.167  -8.685  0.00  0.00    +0.057 C 
ATOM     30  O   UNL     1       4.311   3.826  -8.707  0.00  0.00    -0.319 OA
ATOM     31  C   UNL     1       4.288   5.167  -6.585  0.00  0.00    +0.111 C 
ENDROOT
BRANCH  31  32
ATOM     32  N   UNL     1       3.945   6.418  -5.723  0.00  0.00    -0.273 N 
ATOM     33  C   UNL     1       3.595   5.994  -4.392  0.00  0.00    +0.249 C 
ATOM     34  O   UNL     1       3.376   4.817  -4.057  0.00  0.00    -0.270 OA
ATOM     35  C   UNL     1       4.894   7.527  -5.684  0.00  0.00    +0.115 C 
BRANCH  33  36
ATOM     36  C   UNL     1       3.514   6.979  -3.298  0.00  0.00    +0.054 A 
ATOM     37  C   UNL     1       2.364   6.903  -2.518  0.00  0.00    +0.005 A 
ATOM     38  C   UNL     1       2.386   7.132  -1.147  0.00  0.00    +0.000 A 
ATOM     39  C   UNL     1       3.589   7.296  -0.496  0.00  0.00    +0.000 A 
ATOM     40  C   UNL     1       4.729   7.428  -1.242  0.00  0.00    +0.000 A 
ATOM     41  C   UNL     1       4.689   7.067  -2.559  0.00  0.00    +0.005 A 
ENDBRANCH  33  36
ENDBRANCH  31  32
BRANCH   1  43
ATOM     42  C   UNL     1       2.061   6.437  -7.428  0.00  0.00    +0.174 C 
ATOM     43  O   UNL     1       2.406   6.312  -7.552  0.00  0.00    -0.347 OA
ENDBRANCH   1  43
TORSDOF 3
ENDMDL
MODEL 7
REMARK VINA RESULT:      -6.3      4.242     11.426
REMARK  Name = 
REMARK  3 active torsions:
REMARK  status: ('A' for Active; 'I' for Inactive)
REMARK    1  A    between atoms: O_2  and  C_3
REMARK    2  A    between atoms: C_4  and  N_5
REMARK    3  A    between atoms: C_7  and  C_9
REMARK                            x       y       z     vdW  Elec       q    Type
REMARK                         _______ _______ _______ _____ _____    ______ ____
ROOT
ATOM      1  C   UNL     1       0.756   4.809  -8.604  0.00  0.00    +0.178 C 
ATOM      2  C   UNL     1       1.867   4.359  -9.701  0.00  0.00    +0.192 C 
ATOM      3  N   UNL     1       1.812   5.194 -10.856  0.00  0.00    -0.305 N 
ATOM      4  C   UNL     1       2.881   5.910 -11.295  0.00  0.00    +0.077 A 
ATOM      5  C   UNL     1       2.720   6.149 -12.652  0.00  0.00    +0.017 A 
ATOM      6  C   UNL     1       3.802   6.527 -13.445  0.00  0.00    +0.005 A 
ATOM      7  C   UNL     1       4.025   6.253 -14.901  0.00  0.00    +0.142 C 
ATOM      8  N   UNL     1       5.416   6.506 -15.142  0.00  0.00    -0.197 NA
ATOM      9  C   UNL     1       6.063   6.871 -13.916  0.00  0.00    +0.265 C 
ATOM     10  O   UNL     1       7.320   6.905 -13.848  0.00  0.00    -0.268 OA
ATOM     11  C   UNL     1       5.067   6.658 -12.881  0.00  0.00    +0.054 A 
ATOM     12  C   UNL     1       5.266   6.298 -11.559  0.00  0.00    +0.023 A 
ATOM     13  C   UNL     1       6.332   6.367 -10.680  0.00  0.00    +0.017 A 
ATOM     14  C   UNL     1       5.912   5.692  -9.548  0.00  0.00    +0.062 A 
ATOM     15  N   UNL     1       4.651   5.283  -9.764  0.00  0.00    -0.304 N 
ATOM     16  C   UNL     1       3.905   4.752  -8.477  0.00  0.00    +0.208 C 
ATOM     17  C   UNL     1       2.847   6.029  -8.436  0.00  0.00    +0.076 C 
ATOM     18  C   UNL     1       6.872   5.305  -8.620  0.00  0.00    +0.017 A 
ATOM     19  C   UNL     1       8.195   5.581  -8.867  0.00  0.00    +0.001 A 
ATOM     20  C   UNL     1       8.544   6.504  -9.845  0.00  0.00    +0.000 A 
ATOM     21  C   UNL     1       7.596   6.885 -10.784  0.00  0.00    +0.001 A 
ATOM     22  C   UNL     1       1.429   5.766 -12.998  0.00  0.00    +0.017 A 
ATOM     23  C   UNL     1       0.931   5.351 -14.229  0.00  0.00    +0.001 A 
ATOM     24  C   UNL     1       0.000   4.339 -14.346  0.00  0.00    +0.000 A 
ATOM     25  C   UNL     1      -0.852   4.190 -13.259  0.00  0.00    +0.001 A 
ATOM     26  C   UNL     1      -0.227   4.345 -12.027  0.00  0.00    +0.017 A 
ATOM     27  C   UNL     1       4.182   5.923 -10.798  0.00  0.00    +0.078 A 
ATOM     28  C   UNL     1       0.914   5.127 -11.874  0.00  0.00    +0.062 A 
ATOM     29  C   UNL     1       1.120   3.079 -10.141  0.00  0.00    +0.057 C 
ATOM     30  O   UNL     1       2.958   3.869  -9.256  0.00  0.00    -0.319 OA
ATOM     31  C   UNL     1       1.920   5.193  -7.393  0.00  0.00    +0.111 C 
ENDROOT
BRANCH  31  32
ATOM     32  N   UNL     1       1.158   6.415  -6.798  0.00  0.00    -0.273 N 
ATOM     33  C   UNL     1       0.418   5.991  -5.638  0.00  0.00    +0.249 C 
ATOM     34  O   UNL     1       0.233   4.807  -5.307  0.00  0.00    -0.270 OA
ATOM     35  C   UNL     1       1.900   7.641  -6.526  0.00  0.00    +0.115 C 
BRANCH  33  36
ATOM     36  C   UNL     1      -0.151   6.993  -4.717  0.00  0.00    +0.054 A 
ATOM     37  C   UNL     1      -1.327   7.596  -5.154  0.00  0.00    +0.005 A 
ATOM     38  C   UNL     1      -2.354   7.928  -4.278  0.00  0.00    +0.000 A 
ATOM     39  C   UNL     1      -2.293   7.528  -2.961  0.00  0.00    +0.000 A 
ATOM     40  C   UNL     1      -1.129   6.981  -2.492  0.00  0.00    +0.000 A 
ATOM     41  C   UNL     1      -0.202   6.550  -3.399  0.00  0.00    +0.005 A 
ENDBRANCH  33  36
ENDBRANCH  31  32
BRANCH   1  43
ATOM     42  C   UNL     1       0.223   6.316  -9.183  0.00  0.00    +0.174 C 
ATOM     43  O   UNL     1       0.594   6.223  -9.117  0.00  0.00    -0.347 OA
ENDBRANCH   1  43
TORSDOF 3
ENDMDL
MODEL 8
REMARK VINA RESULT:      -6.3      2.134      3.272
REMARK  Name = 
REMARK  3 active torsions:
REMARK  status: ('A' for Active; 'I' for Inactive)
REMARK    1  A    between atoms: O_2  and  C_3
REMARK    2  A    between atoms: C_4  and  N_5
REMARK    3  A    between atoms: C_7  and  C_9
REMARK                            x       y       z     vdW  Elec       q    Type
REMARK                         _______ _______ _______ _____ _____    ______ ____
ROOT
ATOM      1  C   UNL     1       4.234   5.013  -6.223  0.00  0.00    +0.178 C 
ATOM      2  C   UNL     1       3.033   4.628  -5.199  0.00  0.00    +0.192 C 
ATOM      3  N   UNL     1       2.930   5.588  -4.148  0.00  0.00    -0.305 N 
ATOM      4  C   UNL     1       1.791   6.290  -3.906  0.00  0.00    +0.077 A 
ATOM      5  C   UNL     1       1.797   6.687  -2.576  0.00  0.00    +0.017 A 
ATOM      6  C   UNL     1       0.622   7.091  -1.945  0.00  0.00    +0.005 A 
ATOM      7  C   UNL     1       0.257   6.969  -0.497  0.00  0.00    +0.142 C 
ATOM      8  N   UNL     1      -1.161   7.172  -0.429  0.00  0.00    -0.197 NA
ATOM      9  C   UNL     1      -1.689   7.363  -1.747  0.00  0.00    +0.265 C 
ATOM     10  O   UNL     1      -2.931   7.322  -1.945  0.00  0.00    -0.268 OA
ATOM     11  C   UNL     1      -0.580   7.091  -2.645  0.00  0.00    +0.054 A 
ATOM     12  C   UNL     1      -0.622   6.576  -3.930  0.00  0.00    +0.023 A 
ATOM     13  C   UNL     1      -1.591   6.490  -4.914  0.00  0.00    +0.017 A 
ATOM     14  C   UNL     1      -1.025   5.717  -5.912  0.00  0.00    +0.062 A 
ATOM     15  N   UNL     1       0.222   5.403  -5.524  0.00  0.00    -0.304 N 
ATOM     16  C   UNL     1       1.122   4.773  -6.658  0.00  0.00    +0.208 C 
ATOM     17  C   UNL     1       2.123   6.093  -6.741  0.00  0.00    +0.076 C 
ATOM     18  C   UNL     1      -1.864   5.179  -6.880  0.00  0.00    +0.017 A 
ATOM     19  C   UNL     1      -3.216   5.409  -6.801  0.00  0.00    +0.001 A 
ATOM     20  C   UNL     1      -3.706   6.415  -5.978  0.00  0.00    +0.000 A 
ATOM     21  C   UNL     1      -2.880   6.948  -4.998  0.00  0.00    +0.001 A 
ATOM     22  C   UNL     1       3.059   6.414  -2.060  0.00  0.00    +0.017 A 
ATOM     23  C   UNL     1       3.440   6.165  -0.745  0.00  0.00    +0.001 A 
ATOM     24  C   UNL     1       4.395   5.223  -0.418  0.00  0.00    +0.000 A 
ATOM     25  C   UNL     1       5.364   5.002  -1.389  0.00  0.00    +0.001 A 
ATOM     26  C   UNL     1       4.867   4.985  -2.688  0.00  0.00    +0.017 A 
ATOM     27  C   UNL     1       0.551   6.178  -4.529  0.00  0.00    +0.078 A 
ATOM     28  C   UNL     1       3.717   5.682  -3.045  0.00  0.00    +0.062 A 
ATOM     29  C   UNL     1       3.782   3.448  -4.540  0.00  0.00    +0.057 C 
ATOM     30  O   UNL     1       2.017   4.034  -5.691  0.00  0.00    -0.319 OA
ATOM     31  C   UNL     1       3.190   5.198  -7.581  0.00  0.00    +0.111 C 
ENDROOT
BRANCH  31  32
ATOM     32  N   UNL     1       3.960   6.385  -8.234  0.00  0.00    -0.273 N 
ATOM     33  C   UNL     1       4.865   5.872  -9.229  0.00  0.00    +0.249 C 
ATOM     34  O   UNL     1       5.152   4.672  -9.376  0.00  0.00    -0.270 OA
ATOM     35  C   UNL     1       3.197   7.515  -8.754  0.00  0.00    +0.115 C 
BRANCH  33  36
ATOM     36  C   UNL     1       5.496   6.788 -10.197  0.00  0.00    +0.054 A 
ATOM     37  C   UNL     1       6.883   6.875 -10.109  0.00  0.00    +0.005 A 
ATOM     38  C   UNL     1       7.686   7.013 -11.236  0.00  0.00    +0.000 A 
ATOM     39  C   UNL     1       7.131   6.915 -12.493  0.00  0.00    +0.000 A 
ATOM     40  C   UNL     1       5.768   6.882 -12.610  0.00  0.00    +0.000 A 
ATOM     41  C   UNL     1       5.026   6.614 -11.494  0.00  0.00    +0.005 A 
ENDBRANCH  33  36
ENDBRANCH  31  32
BRANCH   1  43
ATOM     42  C   UNL     1       4.637   6.600  -5.766  0.00  0.00    +0.174 C 
ATOM     43  O   UNL     1       4.281   6.482  -5.864  0.00  0.00    -0.347 OA
ENDBRANCH   1  43
TORSDOF 3
ENDMDL
