MODEL 1
REMARK VINA RESULT:      -6.5      0.000      0.000
REMARK  Name = 
REMARK  4 active torsions:
REMARK  status: ('A' for Active; 'I' for Inactive)
REMARK    1  A    between atoms: C_2  and  C_3
REMARK    2  A    between atoms: C_2  and  N_12
REMARK    3  A    between atoms: C_2  and  C_14
REMARK    4  A    between atoms: C_3  and  C_4
REMARK                            x       y       z     vdW  Elec       q    Type
REMARK                         _______ _______ _______ _____ _____    ______ ____
ROOT
ATOM      1  C   UNL     1       4.430   6.788  -9.884  0.00  0.00    +0.055 C 
ENDROOT
BRANCH   1   2
ATOM      2  C   UNL     1       5.482   5.856 -10.319  0.00  0.00    -0.017 A 
ATOM      3  C   UNL     1       5.665   5.445 -11.626  0.00  0.00    +0.041 A 
ATOM      4  C   UNL     1       6.928   5.186 -12.148  0.00  0.00    +0.234 A 
ATOM      5  O   UNL     1       7.097   4.842 -13.472  0.00  0.00    -0.283 OA
ATOM      6  C   UNL     1       8.061   5.471 -11.396  0.00  0.00    +0.234 A 
ATOM      7  O   UNL     1       9.193   6.032 -11.995  0.00  0.00    -0.283 OA
ATOM      8  C   UNL     1       7.866   5.517 -10.021  0.00  0.00    +0.045 A 
ATOM      9  C   UNL     1       6.592   5.701  -9.495  0.00  0.00    -0.001 A 
ENDBRANCH   1   2
BRANCH   1  11
ATOM     10  C   UNL     1       3.849   6.019  -7.565  0.00  0.00    +0.031 C 
ATOM     11  C   UNL     1       3.394   6.186  -8.990  0.00  0.00    +0.175 C 
BRANCH  11  12
ATOM     12  C   UNL     1       2.250   7.152  -8.949  0.00  0.00    +0.380 C 
ATOM     13  O   UNL     1       2.257   8.110  -7.930  0.00  0.00    -0.244 OA
ATOM     14  O   UNL     1       1.112   6.644  -9.188  0.00  0.00    -0.244 OA
ENDBRANCH  11  12
BRANCH  11  15
ATOM     15  N   UNL     1       2.934   4.950  -9.582  0.00  0.00    -0.104 NA
ATOM     16  N   UNL     1       2.973   3.872  -8.693  0.00  0.00    -0.020 NA
ENDBRANCH  11  15
ENDBRANCH   1  11
TORSDOF 4
ENDMDL
MODEL 2
REMARK VINA RESULT:      -6.4      2.186      5.698
REMARK  Name = 
REMARK  4 active torsions:
REMARK  status: ('A' for Active; 'I' for Inactive)
REMARK    1  A    between atoms: C_2  and  C_3
REMARK    2  A    between atoms: C_2  and  N_12
REMARK    3  A    between atoms: C_2  and  C_14
REMARK    4  A    between atoms: C_3  and  C_4
REMARK                            x       y       z     vdW  Elec       q    Type
REMARK                         _______ _______ _______ _____ _____    ______ ____
ROOT
ATOM      1  C   UNL     1       5.765   5.537 -10.932  0.00  0.00    +0.055 C 
ENDROOT
BRANCH   1   2
ATOM      2  C   UNL     1       5.093   6.016  -9.713  0.00  0.00    -0.017 A 
ATOM      3  C   UNL     1       3.983   6.841  -9.710  0.00  0.00    +0.041 A 
ATOM      4  C   UNL     1       2.989   6.737  -8.744  0.00  0.00    +0.234 A 
ATOM      5  O   UNL     1       1.858   7.523  -8.794  0.00  0.00    -0.283 OA
ATOM      6  C   UNL     1       3.022   5.696  -7.824  0.00  0.00    +0.234 A 
ATOM      7  O   UNL     1       1.847   5.036  -7.451  0.00  0.00    -0.283 OA
ATOM      8  C   UNL     1       4.274   5.133  -7.607  0.00  0.00    +0.045 A 
ATOM      9  C   UNL     1       5.293   5.299  -8.538  0.00  0.00    -0.001 A 
ENDBRANCH   1   2
BRANCH   1  11
ATOM     10  C   UNL     1       7.726   6.914 -10.177  0.00  0.00    +0.031 C 
ATOM     11  C   UNL     1       6.961   6.338 -11.339  0.00  0.00    +0.175 C 
BRANCH  11  12
ATOM     12  C   UNL     1       7.898   5.390 -12.022  0.00  0.00    +0.380 C 
ATOM     13  O   UNL     1       9.141   5.892 -12.420  0.00  0.00    -0.244 OA
ATOM     14  O   UNL     1       7.351   4.610 -12.861  0.00  0.00    -0.244 OA
ENDBRANCH  11  12
BRANCH  11  15
ATOM     15  N   UNL     1       6.543   7.342 -12.291  0.00  0.00    -0.104 NA
ATOM     16  N   UNL     1       6.476   8.623 -11.737  0.00  0.00    -0.020 NA
ENDBRANCH  11  15
ENDBRANCH   1  11
TORSDOF 4
ENDMDL
MODEL 3
REMARK VINA RESULT:      -6.3      2.336      5.673
REMARK  Name = 
REMARK  4 active torsions:
REMARK  status: ('A' for Active; 'I' for Inactive)
REMARK    1  A    between atoms: C_2  and  C_3
REMARK    2  A    between atoms: C_2  and  N_12
REMARK    3  A    between atoms: C_2  and  C_14
REMARK    4  A    between atoms: C_3  and  C_4
REMARK                            x       y       z     vdW  Elec       q    Type
REMARK                         _______ _______ _______ _____ _____    ______ ____
ROOT
ATOM      1  C   UNL     1       5.270   5.517 -11.376  0.00  0.00    +0.055 C 
ENDROOT
BRANCH   1   2
ATOM      2  C   UNL     1       4.954   6.099 -10.062  0.00  0.00    -0.017 A 
ATOM      3  C   UNL     1       3.878   6.931  -9.819  0.00  0.00    +0.041 A 
ATOM      4  C   UNL     1       3.192   6.915  -8.610  0.00  0.00    +0.234 A 
ATOM      5  O   UNL     1       2.080   7.705  -8.408  0.00  0.00    -0.283 OA
ATOM      6  C   UNL     1       3.491   5.952  -7.654  0.00  0.00    +0.234 A 
ATOM      7  O   UNL     1       2.474   5.335  -6.919  0.00  0.00    -0.283 OA
ATOM      8  C   UNL     1       4.762   5.397  -7.748  0.00  0.00    +0.045 A 
ATOM      9  C   UNL     1       5.481   5.477  -8.935  0.00  0.00    -0.001 A 
ENDBRANCH   1   2
BRANCH   1  11
ATOM     10  C   UNL     1       6.724   7.559 -11.525  0.00  0.00    +0.031 C 
ATOM     11  C   UNL     1       6.328   6.245 -12.142  0.00  0.00    +0.175 C 
BRANCH  11  12
ATOM     12  C   UNL     1       7.553   5.384 -12.104  0.00  0.00    +0.380 C 
ATOM     13  O   UNL     1       8.736   5.972 -11.646  0.00  0.00    -0.244 OA
ATOM     14  O   UNL     1       7.697   4.616 -13.104  0.00  0.00    -0.244 OA
ENDBRANCH  11  12
BRANCH  11  15
ATOM     15  N   UNL     1       5.897   6.376 -13.516  0.00  0.00    -0.104 NA
ATOM     16  N   UNL     1       6.336   7.560 -14.114  0.00  0.00    -0.020 NA
ENDBRANCH  11  15
ENDBRANCH   1  11
TORSDOF 4
ENDMDL
MODEL 4
REMARK VINA RESULT:      -6.3      5.007      8.837
REMARK  Name = 
REMARK  4 active torsions:
REMARK  status: ('A' for Active; 'I' for Inactive)
REMARK    1  A    between atoms: C_2  and  C_3
REMARK    2  A    between atoms: C_2  and  N_12
REMARK    3  A    between atoms: C_2  and  C_14
REMARK    4  A    between atoms: C_3  and  C_4
REMARK                            x       y       z     vdW  Elec       q    Type
REMARK                         _______ _______ _______ _____ _____    ______ ____
ROOT
ATOM      1  C   UNL     1       0.464   6.847  -5.920  0.00  0.00    +0.055 C 
ENDROOT
BRANCH   1   2
ATOM      2  C   UNL     1      -0.449   5.927  -5.226  0.00  0.00    -0.017 A 
ATOM      3  C   UNL     1      -0.358   5.605  -3.884  0.00  0.00    +0.041 A 
ATOM      4  C   UNL     1      -1.484   5.358  -3.107  0.00  0.00    +0.234 A 
ATOM      5  O   UNL     1      -1.378   5.104  -1.756  0.00  0.00    -0.283 OA
ATOM      6  C   UNL     1      -2.752   5.565  -3.636  0.00  0.00    +0.234 A 
ATOM      7  O   UNL     1      -3.762   6.144  -2.862  0.00  0.00    -0.283 OA
ATOM      8  C   UNL     1      -2.832   5.519  -5.023  0.00  0.00    +0.045 A 
ATOM      9  C   UNL     1      -1.693   5.691  -5.802  0.00  0.00    -0.001 A 
ENDBRANCH   1   2
BRANCH   1  11
ATOM     10  C   UNL     1       0.899   5.763  -8.143  0.00  0.00    +0.031 C 
ATOM     11  C   UNL     1       1.463   6.180  -6.812  0.00  0.00    +0.175 C 
BRANCH  11  12
ATOM     12  C   UNL     1       2.518   7.201  -7.111  0.00  0.00    +0.380 C 
ATOM     13  O   UNL     1       3.443   7.481  -6.100  0.00  0.00    -0.244 OA
ATOM     14  O   UNL     1       2.112   8.218  -7.751  0.00  0.00    -0.244 OA
ENDBRANCH  11  12
BRANCH  11  15
ATOM     15  N   UNL     1       2.070   5.086  -6.089  0.00  0.00    -0.104 NA
ATOM     16  N   UNL     1       2.143   3.910  -6.841  0.00  0.00    -0.020 NA
ENDBRANCH  11  15
ENDBRANCH   1  11
TORSDOF 4
ENDMDL
MODEL 5
REMARK VINA RESULT:      -6.3      5.296      7.260
REMARK  Name = 
REMARK  4 active torsions:
REMARK  status: ('A' for Active; 'I' for Inactive)
REMARK    1  A    between atoms: C_2  and  C_3
REMARK    2  A    between atoms: C_2  and  N_12
REMARK    3  A    between atoms: C_2  and  C_14
REMARK    4  A    between atoms: C_3  and  C_4
REMARK                            x       y       z     vdW  Elec       q    Type
REMARK                         _______ _______ _______ _____ _____    ______ ____
ROOT
ATOM      1  C   UNL     1      -0.001   5.601  -4.213  0.00  0.00    +0.055 C 
ENDROOT
BRANCH   1   2
ATOM      2  C   UNL     1       0.469   5.692  -5.605  0.00  0.00    -0.017 A 
ATOM      3  C   UNL     1       0.800   6.876  -6.237  0.00  0.00    +0.041 A 
ATOM      4  C   UNL     1       1.820   6.948  -7.179  0.00  0.00    +0.234 A 
ATOM      5  O   UNL     1       2.181   8.150  -7.751  0.00  0.00    -0.283 OA
ATOM      6  C   UNL     1       2.633   5.845  -7.409  0.00  0.00    +0.234 A 
ATOM      7  O   UNL     1       4.009   6.000  -7.601  0.00  0.00    -0.283 OA
ATOM      8  C   UNL     1       2.078   4.617  -7.068  0.00  0.00    +0.045 A 
ATOM      9  C   UNL     1       1.007   4.547  -6.184  0.00  0.00    -0.001 A 
ENDBRANCH   1   2
BRANCH   1  11
ATOM     10  C   UNL     1      -2.356   5.596  -5.086  0.00  0.00    +0.031 C 
ATOM     11  C   UNL     1      -1.413   6.045  -4.002  0.00  0.00    +0.175 C 
BRANCH  11  12
ATOM     12  C   UNL     1      -1.885   5.386  -2.743  0.00  0.00    +0.380 C 
ATOM     13  O   UNL     1      -0.908   4.880  -1.879  0.00  0.00    -0.244 OA
ATOM     14  O   UNL     1      -2.905   4.643  -2.879  0.00  0.00    -0.244 OA
ENDBRANCH  11  12
BRANCH  11  15
ATOM     15  N   UNL     1      -1.422   7.477  -3.805  0.00  0.00    -0.104 NA
ATOM     16  N   UNL     1      -2.208   8.151  -4.744  0.00  0.00    -0.020 NA
ENDBRANCH  11  15
ENDBRANCH   1  11
TORSDOF 4
ENDMDL
MODEL 6
REMARK VINA RESULT:      -6.3      2.088      2.677
REMARK  Name = 
REMARK  4 active torsions:
REMARK  status: ('A' for Active; 'I' for Inactive)
REMARK    1  A    between atoms: C_2  and  C_3
REMARK    2  A    between atoms: C_2  and  N_12
REMARK    3  A    between atoms: C_2  and  C_14
REMARK    4  A    between atoms: C_3  and  C_4
REMARK                            x       y       z     vdW  Elec       q    Type
REMARK                         _______ _______ _______ _____ _____    ______ ____
ROOT
ATOM      1  C   UNL     1       3.405   5.917 -10.236  0.00  0.00    +0.055 C 
ENDROOT
BRANCH   1   2
ATOM      2  C   UNL     1       4.773   6.427 -10.046  0.00  0.00    -0.017 A 
ATOM      3  C   UNL     1       5.810   5.688  -9.508  0.00  0.00    +0.041 A 
ATOM      4  C   UNL     1       7.124   5.844  -9.932  0.00  0.00    +0.234 A 
ATOM      5  O   UNL     1       8.136   5.053  -9.431  0.00  0.00    -0.283 OA
ATOM      6  C   UNL     1       7.410   6.661 -11.020  0.00  0.00    +0.234 A 
ATOM      7  O   UNL     1       8.364   6.277 -11.968  0.00  0.00    -0.283 OA
ATOM      8  C   UNL     1       6.464   7.641 -11.292  0.00  0.00    +0.045 A 
ATOM      9  C   UNL     1       5.167   7.524 -10.805  0.00  0.00    -0.001 A 
ENDBRANCH   1   2
BRANCH   1  11
ATOM     10  C   UNL     1       1.063   6.472  -9.522  0.00  0.00    +0.031 C 
ATOM     11  C   UNL     1       2.477   6.184  -9.095  0.00  0.00    +0.175 C 
BRANCH  11  12
ATOM     12  C   UNL     1       2.417   4.923  -8.289  0.00  0.00    +0.380 C 
ATOM     13  O   UNL     1       3.038   4.932  -7.036  0.00  0.00    -0.244 OA
ATOM     14  O   UNL     1       2.586   3.855  -8.954  0.00  0.00    -0.244 OA
ENDBRANCH  11  12
BRANCH  11  15
ATOM     15  N   UNL     1       3.042   7.231  -8.274  0.00  0.00    -0.104 NA
ATOM     16  N   UNL     1       2.099   8.186  -7.884  0.00  0.00    -0.020 NA
ENDBRANCH  11  15
ENDBRANCH   1  11
TORSDOF 4
ENDMDL
MODEL 7
REMARK VINA RESULT:      -6.1      5.616      7.798
REMARK  Name = 
REMARK  4 active torsions:
REMARK  status: ('A' for Active; 'I' for Inactive)
REMARK    1  A    between atoms: C_2  and  C_3
REMARK    2  A    between atoms: C_2  and  N_12
REMARK    3  A    between atoms: C_2  and  C_14
REMARK    4  A    between atoms: C_3  and  C_4
REMARK                            x       y       z     vdW  Elec       q    Type
REMARK                         _______ _______ _______ _____ _____    ______ ____
ROOT
ATOM      1  C   UNL     1      -0.979   5.545  -4.493  0.00  0.00    +0.055 C 
ENDROOT
BRANCH   1   2
ATOM      2  C   UNL     1      -0.498   6.137  -5.751  0.00  0.00    -0.017 A 
ATOM      3  C   UNL     1       0.645   6.908  -5.860  0.00  0.00    +0.041 A 
ATOM      4  C   UNL     1       1.448   6.879  -6.995  0.00  0.00    +0.234 A 
ATOM      5  O   UNL     1       2.619   7.603  -7.060  0.00  0.00    -0.283 OA
ATOM      6  C   UNL     1       1.191   5.959  -8.004  0.00  0.00    +0.234 A 
ATOM      7  O   UNL     1       2.239   5.298  -8.652  0.00  0.00    -0.283 OA
ATOM      8  C   UNL     1      -0.114   5.481  -8.054  0.00  0.00    +0.045 A 
ATOM      9  C   UNL     1      -0.944   5.577  -6.943  0.00  0.00    -0.001 A 
ENDBRANCH   1   2
BRANCH   1  11
ATOM     10  C   UNL     1      -2.020   7.815  -4.227  0.00  0.00    +0.031 C 
ATOM     11  C   UNL     1      -1.670   6.504  -3.576  0.00  0.00    +0.175 C 
BRANCH  11  12
ATOM     12  C   UNL     1      -2.973   5.869  -3.197  0.00  0.00    +0.380 C 
ATOM     13  O   UNL     1      -3.823   6.601  -2.361  0.00  0.00    -0.244 OA
ATOM     14  O   UNL     1      -2.905   4.631  -2.927  0.00  0.00    -0.244 OA
ENDBRANCH  11  12
BRANCH  11  15
ATOM     15  N   UNL     1      -0.868   6.663  -2.385  0.00  0.00    -0.104 NA
ATOM     16  N   UNL     1       0.115   5.679  -2.254  0.00  0.00    -0.020 NA
ENDBRANCH  11  15
ENDBRANCH   1  11
TORSDOF 4
ENDMDL
MODEL 8
REMARK VINA RESULT:      -5.9      1.227      2.086
REMARK  Name = 
REMARK  4 active torsions:
REMARK  status: ('A' for Active; 'I' for Inactive)
REMARK    1  A    between atoms: C_2  and  C_3
REMARK    2  A    between atoms: C_2  and  N_12
REMARK    3  A    between atoms: C_2  and  C_14
REMARK    4  A    between atoms: C_3  and  C_4
REMARK                            x       y       z     vdW  Elec       q    Type
REMARK                         _______ _______ _______ _____ _____    ______ ____
ROOT
ATOM      1  C   UNL     1       3.358   4.800  -9.355  0.00  0.00    +0.055 C 
ENDROOT
BRANCH   1   2
ATOM      2  C   UNL     1       4.315   5.530 -10.202  0.00  0.00    -0.017 A 
ATOM      3  C   UNL     1       5.629   5.780  -9.852  0.00  0.00    +0.041 A 
ATOM      4  C   UNL     1       6.651   5.808 -10.794  0.00  0.00    +0.234 A 
ATOM      5  O   UNL     1       7.964   5.993 -10.419  0.00  0.00    -0.283 OA
ATOM      6  C   UNL     1       6.391   5.445 -12.110  0.00  0.00    +0.234 A 
ATOM      7  O   UNL     1       7.309   4.675 -12.832  0.00  0.00    -0.283 OA
ATOM      8  C   UNL     1       5.065   5.561 -12.509  0.00  0.00    +0.045 A 
ATOM      9  C   UNL     1       4.046   5.609 -11.564  0.00  0.00    -0.001 A 
ENDBRANCH   1   2
BRANCH   1  11
ATOM     10  C   UNL     1       3.810   6.018  -7.206  0.00  0.00    +0.031 C 
ATOM     11  C   UNL     1       2.787   5.600  -8.228  0.00  0.00    +0.175 C 
BRANCH  11  12
ATOM     12  C   UNL     1       2.259   6.867  -8.827  0.00  0.00    +0.380 C 
ATOM     13  O   UNL     1       2.330   8.025  -8.045  0.00  0.00    -0.244 OA
ATOM     14  O   UNL     1       1.181   6.739  -9.483  0.00  0.00    -0.244 OA
ENDBRANCH  11  12
BRANCH  11  15
ATOM     15  N   UNL     1       1.684   4.866  -7.652  0.00  0.00    -0.104 NA
ATOM     16  N   UNL     1       2.093   3.913  -6.715  0.00  0.00    -0.020 NA
ENDBRANCH  11  15
ENDBRANCH   1  11
TORSDOF 4
ENDMDL
MODEL 9
REMARK VINA RESULT:      -5.8      4.534      8.225
REMARK  Name = 
REMARK  4 active torsions:
REMARK  status: ('A' for Active; 'I' for Inactive)
REMARK    1  A    between atoms: C_2  and  C_3
REMARK    2  A    between atoms: C_2  and  N_12
REMARK    3  A    between atoms: C_2  and  C_14
REMARK    4  A    between atoms: C_3  and  C_4
REMARK                            x       y       z     vdW  Elec       q    Type
REMARK                         _______ _______ _______ _____ _____    ______ ____
ROOT
ATOM      1  C   UNL     1       1.647   5.423  -6.105  0.00  0.00    +0.055 C 
ENDROOT
BRANCH   1   2
ATOM      2  C   UNL     1       0.811   5.967  -5.024  0.00  0.00    -0.017 A 
ATOM      3  C   UNL     1      -0.424   6.558  -5.219  0.00  0.00    +0.041 A 
ATOM      4  C   UNL     1      -1.455   6.436  -4.294  0.00  0.00    +0.234 A 
ATOM      5  O   UNL     1      -2.700   6.976  -4.536  0.00  0.00    -0.283 OA
ATOM      6  C   UNL     1      -1.309   5.590  -3.201  0.00  0.00    +0.234 A 
ATOM      7  O   UNL     1      -2.375   4.795  -2.768  0.00  0.00    -0.283 OA
ATOM      8  C   UNL     1       0.002   5.316  -2.831  0.00  0.00    +0.045 A 
ATOM      9  C   UNL     1       1.044   5.509  -3.731  0.00  0.00    -0.001 A 
ENDBRANCH   1   2
BRANCH   1  11
ATOM     10  C   UNL     1       3.730   5.761  -7.467  0.00  0.00    +0.031 C 
ATOM     11  C   UNL     1       2.601   6.405  -6.708  0.00  0.00    +0.175 C 
BRANCH  11  12
ATOM     12  C   UNL     1       1.823   7.194  -7.715  0.00  0.00    +0.380 C 
ATOM     13  O   UNL     1       1.489   6.554  -8.913  0.00  0.00    -0.244 OA
ATOM     14  O   UNL     1       2.190   8.402  -7.847  0.00  0.00    -0.244 OA
ENDBRANCH  11  12
BRANCH  11  15
ATOM     15  N   UNL     1       3.059   7.301  -5.672  0.00  0.00    -0.104 NA
ATOM     16  N   UNL     1       4.318   6.957  -5.171  0.00  0.00    -0.020 NA
ENDBRANCH  11  15
ENDBRANCH   1  11
TORSDOF 4
ENDMDL
