MODEL 1
REMARK VINA RESULT:      -8.2      0.000      0.000
REMARK  Name = 
REMARK  10 active torsions:
REMARK  status: ('A' for Active; 'I' for Inactive)
REMARK    1  A    between atoms: C_2  and  C_3
REMARK    2  A    between atoms: C_3  and  C_4
REMARK    3  A    between atoms: C_4  and  N_5
REMARK    4  A    between atoms: N_5  and  C_6
REMARK    5  A    between atoms: N_5  and  C_10
REMARK    6  A    between atoms: C_6  and  C_7
REMARK    7  A    between atoms: C_7  and  C_8
REMARK    8  A    between atoms: C_10  and  C_11
REMARK    9  A    between atoms: C_11  and  C_13
REMARK   10  A    between atoms: C_28  and  C_29
REMARK                            x       y       z     vdW  Elec       q    Type
REMARK                         _______ _______ _______ _____ _____    ______ ____
ROOT
ATOM      1  C   UNL     1       3.951   4.859  -7.470  0.00  0.00    +0.010 A 
ATOM      2  C   UNL     1       2.590   5.145  -7.658  0.00  0.00    -0.002 A 
ATOM      3  C   UNL     1       1.746   5.273  -8.855  0.00  0.00    -0.000 A 
ATOM      4  C   UNL     1       0.453   5.530  -8.441  0.00  0.00    +0.001 A 
ATOM      5  C   UNL     1       0.524   5.777  -6.992  0.00  0.00    +0.000 C 
ATOM      6  C   UNL     1      -0.260   6.654  -6.362  0.00  0.00    +0.000 C 
ATOM      7  C   UNL     1      -0.498   5.871  -9.395  0.00  0.00    +0.011 A 
ATOM      8  C   UNL     1      -0.166   6.224 -10.694  0.00  0.00    +0.058 A 
ATOM      9 CL   UNL     1      -1.138   7.406 -11.559  0.00  0.00    -0.082 Cl
ATOM     10  C   UNL     1       1.108   5.870 -11.105  0.00  0.00    +0.011 A 
ATOM     11  C   UNL     1       2.021   5.315 -10.218  0.00  0.00    +0.001 A 
ATOM     12  C   UNL     1       1.929   5.685  -6.562  0.00  0.00    +0.001 A 
ATOM     13  C   UNL     1       2.633   6.265  -5.510  0.00  0.00    +0.011 A 
ATOM     14  C   UNL     1       4.017   6.381  -5.635  0.00  0.00    +0.057 A 
ATOM     15 CL   UNL     1       4.780   7.726  -4.782  0.00  0.00    -0.082 Cl
ATOM     16  C   UNL     1       4.701   5.701  -6.642  0.00  0.00    +0.010 A 
ENDROOT
BRANCH   6  17
ATOM     17  C   UNL     1      -0.303   6.705  -4.888  0.00  0.00    +0.000 A 
ATOM     18  C   UNL     1      -0.472   5.556  -4.120  0.00  0.00    +0.001 A 
ATOM     19  C   UNL     1      -1.540   5.408  -3.240  0.00  0.00    +0.011 A 
ATOM     20  C   UNL     1      -2.545   6.370  -3.171  0.00  0.00    +0.058 A 
ATOM     21 CL   UNL     1      -4.247   5.925  -3.205  0.00  0.00    -0.082 Cl
ATOM     22  C   UNL     1      -2.087   7.637  -3.507  0.00  0.00    +0.011 A 
ATOM     23  C   UNL     1      -0.994   7.793  -4.357  0.00  0.00    +0.001 A 
ENDBRANCH   6  17
BRANCH   1  24
ATOM     24  C   UNL     1       4.691   4.590  -8.894  0.00  0.00    +0.190 C 
ATOM     25  O   UNL     1       5.996   4.194  -8.214  0.00  0.00    -0.217 OA
BRANCH  24  26
ATOM     26  C   UNL     1       5.156   6.173  -9.048  0.00  0.00    +0.110 C 
BRANCH  26  27
ATOM     27  N   UNL     1       5.843   6.190 -10.344  0.00  0.00    -0.270 NA
BRANCH  27  28
ATOM     28  C   UNL     1       7.221   6.597 -10.170  0.00  0.00    +0.072 C 
BRANCH  28  29
ATOM     29  C   UNL     1       8.217   5.597 -10.651  0.00  0.00    +0.017 C 
BRANCH  29  31
ATOM     30  C   UNL     1       8.831   5.730 -12.497  0.00  0.00    +0.000 C 
ATOM     31  C   UNL     1       8.788   5.934 -11.999  0.00  0.00    +0.001 C 
ENDBRANCH  29  31
ENDBRANCH  28  29
ENDBRANCH  27  28
BRANCH  27  32
ATOM     32  C   UNL     1       5.163   7.148 -11.211  0.00  0.00    +0.072 C 
BRANCH  32  33
ATOM     33  C   UNL     1       5.293   6.701 -12.649  0.00  0.00    +0.017 C 
BRANCH  33  34
ATOM     34  C   UNL     1       4.967   5.236 -12.836  0.00  0.00    +0.001 C 
ATOM     35  C   UNL     1       3.734   5.154 -13.710  0.00  0.00    +0.000 C 
ENDBRANCH  33  34
ENDBRANCH  32  33
ENDBRANCH  27  32
ENDBRANCH  26  27
ENDBRANCH  24  26
ENDBRANCH   1  24
TORSDOF 10
ENDMDL
MODEL 2
REMARK VINA RESULT:      -8.0      3.088      8.701
REMARK  Name = 
REMARK  10 active torsions:
REMARK  status: ('A' for Active; 'I' for Inactive)
REMARK    1  A    between atoms: C_2  and  C_3
REMARK    2  A    between atoms: C_3  and  C_4
REMARK    3  A    between atoms: C_4  and  N_5
REMARK    4  A    between atoms: N_5  and  C_6
REMARK    5  A    between atoms: N_5  and  C_10
REMARK    6  A    between atoms: C_6  and  C_7
REMARK    7  A    between atoms: C_7  and  C_8
REMARK    8  A    between atoms: C_10  and  C_11
REMARK    9  A    between atoms: C_11  and  C_13
REMARK   10  A    between atoms: C_28  and  C_29
REMARK                            x       y       z     vdW  Elec       q    Type
REMARK                         _______ _______ _______ _____ _____    ______ ____
ROOT
ATOM      1  C   UNL     1       1.976   6.585  -5.816  0.00  0.00    +0.010 A 
ATOM      2  C   UNL     1       2.145   6.544  -7.208  0.00  0.00    -0.002 A 
ATOM      3  C   UNL     1       1.234   6.254  -8.324  0.00  0.00    -0.000 A 
ATOM      4  C   UNL     1       1.940   6.399  -9.503  0.00  0.00    +0.001 A 
ATOM      5  C   UNL     1       3.351   6.570  -9.121  0.00  0.00    +0.000 C 
ATOM      6  C   UNL     1       4.366   6.092  -9.844  0.00  0.00    +0.000 C 
ATOM      7  C   UNL     1       1.342   6.002 -10.692  0.00  0.00    +0.011 A 
ATOM      8  C   UNL     1       0.191   5.229 -10.734  0.00  0.00    +0.058 A 
ATOM      9 CL   UNL     1      -0.046   4.076 -12.039  0.00  0.00    -0.082 Cl
ATOM     10  C   UNL     1      -0.541   5.180  -9.559  0.00  0.00    +0.011 A 
ATOM     11  C   UNL     1      -0.067   5.767  -8.393  0.00  0.00    +0.001 A 
ATOM     12  C   UNL     1       3.460   6.490  -7.655  0.00  0.00    +0.001 A 
ATOM     13  C   UNL     1       4.495   6.106  -6.806  0.00  0.00    +0.011 A 
ATOM     14  C   UNL     1       4.161   5.676  -5.521  0.00  0.00    +0.057 A 
ATOM     15 CL   UNL     1       5.248   4.506  -4.770  0.00  0.00    -0.082 Cl
ATOM     16  C   UNL     1       2.879   5.881  -5.013  0.00  0.00    +0.010 A 
ENDROOT
BRANCH   6  17
ATOM     17  C   UNL     1       5.757   6.477  -9.539  0.00  0.00    +0.000 A 
ATOM     18  C   UNL     1       6.386   7.532 -10.195  0.00  0.00    +0.001 A 
ATOM     19  C   UNL     1       7.555   7.353 -10.927  0.00  0.00    +0.011 A 
ATOM     20  C   UNL     1       8.088   6.081 -11.118  0.00  0.00    +0.058 A 
ATOM     21 CL   UNL     1       8.592   5.524 -12.710  0.00  0.00    -0.082 Cl
ATOM     22  C   UNL     1       7.776   5.216 -10.078  0.00  0.00    +0.011 A 
ATOM     23  C   UNL     1       6.627   5.411  -9.315  0.00  0.00    +0.001 A 
ENDBRANCH   6  17
BRANCH   1  24
ATOM     24  C   UNL     1       0.430   6.275  -5.409  0.00  0.00    +0.190 C 
ATOM     25  O   UNL     1       0.054   7.751  -5.461  0.00  0.00    -0.217 OA
BRANCH  24  26
ATOM     26  C   UNL     1       0.757   6.331  -3.786  0.00  0.00    +0.110 C 
BRANCH  26  27
ATOM     27  N   UNL     1       0.020   5.176  -3.261  0.00  0.00    -0.270 NA
BRANCH  27  28
ATOM     28  C   UNL     1      -1.405   5.401  -3.380  0.00  0.00    +0.072 C 
BRANCH  28  29
ATOM     29  C   UNL     1      -2.081   5.719  -2.090  0.00  0.00    +0.017 C 
BRANCH  29  31
ATOM     30  C   UNL     1      -3.764   6.547  -2.624  0.00  0.00    +0.000 C 
ATOM     31  C   UNL     1      -3.364   6.479  -2.267  0.00  0.00    +0.001 C 
ENDBRANCH  29  31
ENDBRANCH  28  29
ENDBRANCH  27  28
BRANCH  27  32
ATOM     32  C   UNL     1       0.367   5.013  -1.852  0.00  0.00    +0.072 C 
BRANCH  32  33
ATOM     33  C   UNL     1       1.689   5.693  -1.581  0.00  0.00    +0.017 C 
BRANCH  33  34
ATOM     34  C   UNL     1       2.764   4.723  -1.143  0.00  0.00    +0.001 C 
ATOM     35  C   UNL     1       4.099   5.412  -1.332  0.00  0.00    +0.000 C 
ENDBRANCH  33  34
ENDBRANCH  32  33
ENDBRANCH  27  32
ENDBRANCH  26  27
ENDBRANCH  24  26
ENDBRANCH   1  24
TORSDOF 10
ENDMDL
MODEL 3
REMARK VINA RESULT:      -8.0      3.024      8.433
REMARK  Name = 
REMARK  10 active torsions:
REMARK  status: ('A' for Active; 'I' for Inactive)
REMARK    1  A    between atoms: C_2  and  C_3
REMARK    2  A    between atoms: C_3  and  C_4
REMARK    3  A    between atoms: C_4  and  N_5
REMARK    4  A    between atoms: N_5  and  C_6
REMARK    5  A    between atoms: N_5  and  C_10
REMARK    6  A    between atoms: C_6  and  C_7
REMARK    7  A    between atoms: C_7  and  C_8
REMARK    8  A    between atoms: C_10  and  C_11
REMARK    9  A    between atoms: C_11  and  C_13
REMARK   10  A    between atoms: C_28  and  C_29
REMARK                            x       y       z     vdW  Elec       q    Type
REMARK                         _______ _______ _______ _____ _____    ______ ____
ROOT
ATOM      1  C   UNL     1       1.641   6.675  -6.479  0.00  0.00    +0.010 A 
ATOM      2  C   UNL     1       1.960   6.605  -7.844  0.00  0.00    -0.002 A 
ATOM      3  C   UNL     1       1.174   6.289  -9.045  0.00  0.00    -0.000 A 
ATOM      4  C   UNL     1       2.003   6.411 -10.144  0.00  0.00    +0.001 A 
ATOM      5  C   UNL     1       3.365   6.593  -9.616  0.00  0.00    +0.000 C 
ATOM      6  C   UNL     1       4.452   6.102 -10.215  0.00  0.00    +0.000 C 
ATOM      7  C   UNL     1       1.537   5.987 -11.382  0.00  0.00    +0.011 A 
ATOM      8  C   UNL     1       0.397   5.212 -11.531  0.00  0.00    +0.058 A 
ATOM      9 CL   UNL     1       0.302   4.031 -12.829  0.00  0.00    -0.082 Cl
ATOM     10  C   UNL     1      -0.457   5.186 -10.442  0.00  0.00    +0.011 A 
ATOM     11  C   UNL     1      -0.112   5.798  -9.243  0.00  0.00    +0.001 A 
ATOM     12  C   UNL     1       3.315   6.544  -8.145  0.00  0.00    +0.001 A 
ATOM     13  C   UNL     1       4.252   6.180  -7.181  0.00  0.00    +0.011 A 
ATOM     14  C   UNL     1       3.781   5.776  -5.932  0.00  0.00    +0.057 A 
ATOM     15 CL   UNL     1       4.781   4.625  -5.042  0.00  0.00    -0.082 Cl
ATOM     16  C   UNL     1       2.452   5.990  -5.569  0.00  0.00    +0.010 A 
ENDROOT
BRANCH   6  17
ATOM     17  C   UNL     1       5.802   6.496  -9.770  0.00  0.00    +0.000 A 
ATOM     18  C   UNL     1       6.476   7.573 -10.340  0.00  0.00    +0.001 A 
ATOM     19  C   UNL     1       7.712   7.425 -10.959  0.00  0.00    +0.011 A 
ATOM     20  C   UNL     1       8.279   6.162 -11.125  0.00  0.00    +0.058 A 
ATOM     21 CL   UNL     1       8.940   5.648 -12.673  0.00  0.00    -0.082 Cl
ATOM     22  C   UNL     1       7.880   5.271 -10.138  0.00  0.00    +0.011 A 
ATOM     23  C   UNL     1       6.661   5.436  -9.485  0.00  0.00    +0.001 A 
ENDBRANCH   6  17
BRANCH   1  24
ATOM     24  C   UNL     1       0.061   6.370  -6.235  0.00  0.00    +0.190 C 
ATOM     25  O   UNL     1      -0.073   7.518  -5.243  0.00  0.00    -0.217 OA
BRANCH  24  26
ATOM     26  C   UNL     1       0.371   5.265  -5.040  0.00  0.00    +0.110 C 
BRANCH  26  27
ATOM     27  N   UNL     1      -0.380   5.795  -3.897  0.00  0.00    -0.270 NA
BRANCH  27  28
ATOM     28  C   UNL     1       0.151   5.258  -2.662  0.00  0.00    +0.072 C 
BRANCH  28  29
ATOM     29  C   UNL     1       1.259   6.062  -2.075  0.00  0.00    +0.017 C 
BRANCH  29  31
ATOM     30  C   UNL     1       3.049   5.350  -1.768  0.00  0.00    +0.000 C 
ATOM     31  C   UNL     1       2.552   5.304  -1.975  0.00  0.00    +0.001 C 
ENDBRANCH  29  31
ENDBRANCH  28  29
ENDBRANCH  27  28
BRANCH  27  32
ATOM     32  C   UNL     1      -1.776   5.392  -4.039  0.00  0.00    +0.072 C 
BRANCH  32  33
ATOM     33  C   UNL     1      -2.427   5.358  -2.676  0.00  0.00    +0.017 C 
BRANCH  33  34
ATOM     34  C   UNL     1      -3.075   6.674  -2.307  0.00  0.00    +0.001 C 
ATOM     35  C   UNL     1      -2.386   7.185  -1.060  0.00  0.00    +0.000 C 
ENDBRANCH  33  34
ENDBRANCH  32  33
ENDBRANCH  27  32
ENDBRANCH  26  27
ENDBRANCH  24  26
ENDBRANCH   1  24
TORSDOF 10
ENDMDL
MODEL 4
REMARK VINA RESULT:      -7.8      3.259      5.411
REMARK  Name = 
REMARK  10 active torsions:
REMARK  status: ('A' for Active; 'I' for Inactive)
REMARK    1  A    between atoms: C_2  and  C_3
REMARK    2  A    between atoms: C_3  and  C_4
REMARK    3  A    between atoms: C_4  and  N_5
REMARK    4  A    between atoms: N_5  and  C_6
REMARK    5  A    between atoms: N_5  and  C_10
REMARK    6  A    between atoms: C_6  and  C_7
REMARK    7  A    between atoms: C_7  and  C_8
REMARK    8  A    between atoms: C_10  and  C_11
REMARK    9  A    between atoms: C_11  and  C_13
REMARK   10  A    between atoms: C_28  and  C_29
REMARK                            x       y       z     vdW  Elec       q    Type
REMARK                         _______ _______ _______ _____ _____    ______ ____
ROOT
ATOM      1  C   UNL     1       2.968   5.428  -2.959  0.00  0.00    +0.010 A 
ATOM      2  C   UNL     1       1.573   5.533  -2.841  0.00  0.00    -0.002 A 
ATOM      3  C   UNL     1       0.470   5.398  -3.802  0.00  0.00    -0.000 A 
ATOM      4  C   UNL     1      -0.718   5.567  -3.117  0.00  0.00    +0.001 A 
ATOM      5  C   UNL     1      -0.355   6.024  -1.766  0.00  0.00    +0.000 C 
ATOM      6  C   UNL     1      -1.090   6.890  -1.066  0.00  0.00    +0.000 C 
ATOM      7  C   UNL     1      -1.899   5.664  -3.843  0.00  0.00    +0.011 A 
ATOM      8  C   UNL     1      -1.924   5.865  -5.215  0.00  0.00    +0.058 A 
ATOM      9 CL   UNL     1      -3.223   6.798  -5.943  0.00  0.00    -0.082 Cl
ATOM     10  C   UNL     1      -0.740   5.597  -5.882  0.00  0.00    +0.011 A 
ATOM     11  C   UNL     1       0.419   5.276  -5.187  0.00  0.00    +0.001 A 
ATOM     12  C   UNL     1       1.110   6.148  -1.684  0.00  0.00    +0.001 A 
ATOM     13  C   UNL     1       1.947   6.944  -0.906  0.00  0.00    +0.011 A 
ATOM     14  C   UNL     1       3.236   7.192  -1.376  0.00  0.00    +0.057 A 
ATOM     15 CL   UNL     1       3.977   8.719  -0.890  0.00  0.00    -0.082 Cl
ATOM     16  C   UNL     1       3.760   6.456  -2.438  0.00  0.00    +0.010 A 
ENDROOT
BRANCH   6  17
ATOM     17  C   UNL     1      -0.804   7.144   0.359  0.00  0.00    +0.000 A 
ATOM     18  C   UNL     1      -1.490   6.480   1.373  0.00  0.00    +0.001 A 
ATOM     19  C   UNL     1      -2.224   7.165   2.336  0.00  0.00    +0.011 A 
ATOM     20  C   UNL     1      -2.387   8.547   2.259  0.00  0.00    +0.058 A 
ATOM     21 CL   UNL     1      -3.969   9.297   2.443  0.00  0.00    -0.082 Cl
ATOM     22  C   UNL     1      -1.324   9.168   1.618  0.00  0.00    +0.011 A 
ATOM     23  C   UNL     1      -0.559   8.478   0.682  0.00  0.00    +0.001 A 
ENDBRANCH   6  17
BRANCH   1  24
ATOM     24  C   UNL     1       3.395   5.043  -4.481  0.00  0.00    +0.190 C 
ATOM     25  O   UNL     1       4.773   4.566  -4.042  0.00  0.00    -0.217 OA
BRANCH  24  26
ATOM     26  C   UNL     1       3.938   6.574  -4.807  0.00  0.00    +0.110 C 
BRANCH  26  27
ATOM     27  N   UNL     1       3.811   6.666  -6.265  0.00  0.00    -0.270 NA
BRANCH  27  28
ATOM     28  C   UNL     1       2.525   7.229  -6.618  0.00  0.00    +0.072 C 
BRANCH  28  29
ATOM     29  C   UNL     1       2.410   7.636  -8.047  0.00  0.00    +0.017 C 
BRANCH  29  31
ATOM     30  C   UNL     1       1.282   6.542  -9.203  0.00  0.00    +0.000 C 
ATOM     31  C   UNL     1       1.341   6.887  -8.791  0.00  0.00    +0.001 C 
ENDBRANCH  29  31
ENDBRANCH  28  29
ENDBRANCH  27  28
BRANCH  27  32
ATOM     32  C   UNL     1       3.918   5.320  -6.821  0.00  0.00    +0.072 C 
BRANCH  32  33
ATOM     33  C   UNL     1       5.061   5.275  -7.808  0.00  0.00    +0.017 C 
BRANCH  33  34
ATOM     34  C   UNL     1       4.609   4.928  -9.208  0.00  0.00    +0.001 C 
ATOM     35  C   UNL     1       5.144   5.997 -10.136  0.00  0.00    +0.000 C 
ENDBRANCH  33  34
ENDBRANCH  32  33
ENDBRANCH  27  32
ENDBRANCH  26  27
ENDBRANCH  24  26
ENDBRANCH   1  24
TORSDOF 10
ENDMDL
MODEL 5
REMARK VINA RESULT:      -7.7      3.352      8.647
REMARK  Name = 
REMARK  10 active torsions:
REMARK  status: ('A' for Active; 'I' for Inactive)
REMARK    1  A    between atoms: C_2  and  C_3
REMARK    2  A    between atoms: C_3  and  C_4
REMARK    3  A    between atoms: C_4  and  N_5
REMARK    4  A    between atoms: N_5  and  C_6
REMARK    5  A    between atoms: N_5  and  C_10
REMARK    6  A    between atoms: C_6  and  C_7
REMARK    7  A    between atoms: C_7  and  C_8
REMARK    8  A    between atoms: C_10  and  C_11
REMARK    9  A    between atoms: C_11  and  C_13
REMARK   10  A    between atoms: C_28  and  C_29
REMARK                            x       y       z     vdW  Elec       q    Type
REMARK                         _______ _______ _______ _____ _____    ______ ____
ROOT
ATOM      1  C   UNL     1       3.457   6.649  -9.607  0.00  0.00    +0.010 A 
ATOM      2  C   UNL     1       3.188   6.448 -10.969  0.00  0.00    -0.002 A 
ATOM      3  C   UNL     1       2.042   5.883 -11.695  0.00  0.00    -0.000 A 
ATOM      4  C   UNL     1       2.307   5.970 -13.049  0.00  0.00    +0.001 A 
ATOM      5  C   UNL     1       3.712   6.391 -13.169  0.00  0.00    +0.000 C 
ATOM      6  C   UNL     1       4.519   5.972 -14.145  0.00  0.00    +0.000 C 
ATOM      7  C   UNL     1       1.449   5.335 -13.939  0.00  0.00    +0.011 A 
ATOM      8  C   UNL     1       0.501   4.406 -13.537  0.00  0.00    +0.058 A 
ATOM      9 CL   UNL     1       0.079   3.067 -14.594  0.00  0.00    -0.082 Cl
ATOM     10  C   UNL     1       0.193   4.410 -12.187  0.00  0.00    +0.011 A 
ATOM     11  C   UNL     1       0.894   5.209 -11.292  0.00  0.00    +0.001 A 
ATOM     12  C   UNL     1       4.285   6.524 -11.819  0.00  0.00    +0.001 A 
ATOM     13  C   UNL     1       5.584   6.409 -11.330  0.00  0.00    +0.011 A 
ATOM     14  C   UNL     1       5.751   6.111  -9.978  0.00  0.00    +0.057 A 
ATOM     15 CL   UNL     1       7.209   5.221  -9.536  0.00  0.00    -0.082 Cl
ATOM     16  C   UNL     1       4.676   6.196  -9.093  0.00  0.00    +0.010 A 
ENDROOT
BRANCH   6  17
ATOM     17  C   UNL     1       5.843   6.590 -14.348  0.00  0.00    +0.000 A 
ATOM     18  C   UNL     1       5.988   7.817 -14.991  0.00  0.00    +0.001 A 
ATOM     19  C   UNL     1       6.754   7.958 -16.144  0.00  0.00    +0.011 A 
ATOM     20  C   UNL     1       7.325   6.847 -16.761  0.00  0.00    +0.058 A 
ATOM     21 CL   UNL     1       7.183   6.584 -18.495  0.00  0.00    -0.082 Cl
ATOM     22  C   UNL     1       7.599   5.826 -15.861  0.00  0.00    +0.011 A 
ATOM     23  C   UNL     1       6.863   5.701 -14.685  0.00  0.00    +0.001 A 
ENDBRANCH   6  17
BRANCH   1  24
ATOM     24  C   UNL     1       2.198   6.177  -8.690  0.00  0.00    +0.190 C 
ATOM     25  O   UNL     1       1.810   7.615  -8.369  0.00  0.00    -0.217 OA
BRANCH  24  26
ATOM     26  C   UNL     1       3.131   6.038  -7.329  0.00  0.00    +0.110 C 
BRANCH  26  27
ATOM     27  N   UNL     1       2.164   6.236  -6.244  0.00  0.00    -0.270 NA
BRANCH  27  28
ATOM     28  C   UNL     1       2.855   6.588  -5.021  0.00  0.00    +0.072 C 
BRANCH  28  29
ATOM     29  C   UNL     1       4.338   6.465  -5.103  0.00  0.00    +0.017 C 
BRANCH  29  31
ATOM     30  C   UNL     1       5.462   7.633  -4.019  0.00  0.00    +0.000 C 
ATOM     31  C   UNL     1       5.064   7.561  -4.376  0.00  0.00    +0.001 C 
ENDBRANCH  29  31
ENDBRANCH  28  29
ENDBRANCH  27  28
BRANCH  27  32
ATOM     32  C   UNL     1       1.437   4.986  -6.044  0.00  0.00    +0.072 C 
BRANCH  32  33
ATOM     33  C   UNL     1       0.004   5.295  -5.675  0.00  0.00    +0.017 C 
BRANCH  33  34
ATOM     34  C   UNL     1      -0.925   5.262  -6.867  0.00  0.00    +0.001 C 
ATOM     35  C   UNL     1      -2.311   5.614  -6.371  0.00  0.00    +0.000 C 
ENDBRANCH  33  34
ENDBRANCH  32  33
ENDBRANCH  27  32
ENDBRANCH  26  27
ENDBRANCH  24  26
ENDBRANCH   1  24
TORSDOF 10
ENDMDL
MODEL 6
REMARK VINA RESULT:      -7.7      1.741      4.067
REMARK  Name = 
REMARK  10 active torsions:
REMARK  status: ('A' for Active; 'I' for Inactive)
REMARK    1  A    between atoms: C_2  and  C_3
REMARK    2  A    between atoms: C_3  and  C_4
REMARK    3  A    between atoms: C_4  and  N_5
REMARK    4  A    between atoms: N_5  and  C_6
REMARK    5  A    between atoms: N_5  and  C_10
REMARK    6  A    between atoms: C_6  and  C_7
REMARK    7  A    between atoms: C_7  and  C_8
REMARK    8  A    between atoms: C_10  and  C_11
REMARK    9  A    between atoms: C_11  and  C_13
REMARK   10  A    between atoms: C_28  and  C_29
REMARK                            x       y       z     vdW  Elec       q    Type
REMARK                         _______ _______ _______ _____ _____    ______ ____
ROOT
ATOM      1  C   UNL     1       2.717   6.486  -9.766  0.00  0.00    +0.010 A 
ATOM      2  C   UNL     1       2.589   6.515  -8.369  0.00  0.00    -0.002 A 
ATOM      3  C   UNL     1       3.544   6.325  -7.268  0.00  0.00    -0.000 A 
ATOM      4  C   UNL     1       2.867   6.506  -6.077  0.00  0.00    +0.001 A 
ATOM      5  C   UNL     1       1.438   6.595  -6.424  0.00  0.00    +0.000 C 
ATOM      6  C   UNL     1       0.467   6.116  -5.645  0.00  0.00    +0.000 C 
ATOM      7  C   UNL     1       3.515   6.200  -4.887  0.00  0.00    +0.011 A 
ATOM      8  C   UNL     1       4.699   5.480  -4.840  0.00  0.00    +0.058 A 
ATOM      9 CL   UNL     1       5.025   4.412  -3.483  0.00  0.00    -0.082 Cl
ATOM     10  C   UNL     1       5.399   5.398  -6.032  0.00  0.00    +0.011 A 
ATOM     11  C   UNL     1       4.867   5.898  -7.213  0.00  0.00    +0.001 A 
ATOM     12  C   UNL     1       1.292   6.430  -7.879  0.00  0.00    +0.001 A 
ATOM     13  C   UNL     1       0.251   5.956  -8.674  0.00  0.00    +0.011 A 
ATOM     14  C   UNL     1       0.567   5.470  -9.943  0.00  0.00    +0.057 A 
ATOM     15 CL   UNL     1      -0.489   4.215 -10.597  0.00  0.00    -0.082 Cl
ATOM     16  C   UNL     1       1.823   5.701 -10.501  0.00  0.00    +0.010 A 
ENDROOT
BRANCH   6  17
ATOM     17  C   UNL     1      -0.948   6.423  -5.927  0.00  0.00    +0.000 A 
ATOM     18  C   UNL     1      -1.544   7.601  -5.482  0.00  0.00    +0.001 A 
ATOM     19  C   UNL     1      -2.656   7.594  -4.646  0.00  0.00    +0.011 A 
ATOM     20  C   UNL     1      -3.155   6.398  -4.135  0.00  0.00    +0.058 A 
ATOM     21 CL   UNL     1      -3.536   6.216  -2.426  0.00  0.00    -0.082 Cl
ATOM     22  C   UNL     1      -2.904   5.320  -4.973  0.00  0.00    +0.011 A 
ATOM     23  C   UNL     1      -1.816   5.335  -5.841  0.00  0.00    +0.001 A 
ENDBRANCH   6  17
BRANCH   1  24
ATOM     24  C   UNL     1       4.262   6.219 -10.203  0.00  0.00    +0.190 C 
ATOM     25  O   UNL     1       4.584   7.709 -10.210  0.00  0.00    -0.217 OA
BRANCH  24  26
ATOM     26  C   UNL     1       3.893   6.208 -11.818  0.00  0.00    +0.110 C 
BRANCH  26  27
ATOM     27  N   UNL     1       4.833   5.223 -12.364  0.00  0.00    -0.270 NA
BRANCH  27  28
ATOM     28  C   UNL     1       6.096   5.861 -12.672  0.00  0.00    +0.072 C 
BRANCH  28  29
ATOM     29  C   UNL     1       7.255   5.314 -11.911  0.00  0.00    +0.017 C 
BRANCH  29  31
ATOM     30  C   UNL     1       9.079   5.881 -12.304  0.00  0.00    +0.000 C 
ATOM     31  C   UNL     1       8.582   5.744 -12.467  0.00  0.00    +0.001 C 
ENDBRANCH  29  31
ENDBRANCH  28  29
ENDBRANCH  27  28
BRANCH  27  32
ATOM     32  C   UNL     1       4.259   4.672 -13.589  0.00  0.00    +0.072 C 
BRANCH  32  33
ATOM     33  C   UNL     1       3.052   5.489 -13.987  0.00  0.00    +0.017 C 
BRANCH  33  34
ATOM     34  C   UNL     1       1.795   4.654 -14.100  0.00  0.00    +0.001 C 
ATOM     35  C   UNL     1       0.662   5.589 -14.464  0.00  0.00    +0.000 C 
ENDBRANCH  33  34
ENDBRANCH  32  33
ENDBRANCH  27  32
ENDBRANCH  26  27
ENDBRANCH  24  26
ENDBRANCH   1  24
TORSDOF 10
ENDMDL
MODEL 7
REMARK VINA RESULT:      -7.7      2.746      9.175
REMARK  Name = 
REMARK  10 active torsions:
REMARK  status: ('A' for Active; 'I' for Inactive)
REMARK    1  A    between atoms: C_2  and  C_3
REMARK    2  A    between atoms: C_3  and  C_4
REMARK    3  A    between atoms: C_4  and  N_5
REMARK    4  A    between atoms: N_5  and  C_6
REMARK    5  A    between atoms: N_5  and  C_10
REMARK    6  A    between atoms: C_6  and  C_7
REMARK    7  A    between atoms: C_7  and  C_8
REMARK    8  A    between atoms: C_10  and  C_11
REMARK    9  A    between atoms: C_11  and  C_13
REMARK   10  A    between atoms: C_28  and  C_29
REMARK                            x       y       z     vdW  Elec       q    Type
REMARK                         _______ _______ _______ _____ _____    ______ ____
ROOT
ATOM      1  C   UNL     1       0.751   4.747  -7.863  0.00  0.00    +0.010 A 
ATOM      2  C   UNL     1       2.116   5.034  -7.710  0.00  0.00    -0.002 A 
ATOM      3  C   UNL     1       2.982   5.205  -6.535  0.00  0.00    -0.000 A 
ATOM      4  C   UNL     1       4.269   5.439  -6.981  0.00  0.00    +0.001 A 
ATOM      5  C   UNL     1       4.173   5.629  -8.438  0.00  0.00    +0.000 C 
ATOM      6  C   UNL     1       4.949   6.477  -9.116  0.00  0.00    +0.000 C 
ATOM      7  C   UNL     1       5.238   5.813  -6.059  0.00  0.00    +0.011 A 
ATOM      8  C   UNL     1       4.931   6.219  -4.769  0.00  0.00    +0.058 A 
ATOM      9 CL   UNL     1       5.924   7.429  -3.969  0.00  0.00    -0.082 Cl
ATOM     10  C   UNL     1       3.663   5.887  -4.322  0.00  0.00    +0.011 A 
ATOM     11  C   UNL     1       2.732   5.302  -5.170  0.00  0.00    +0.001 A 
ATOM     12  C   UNL     1       2.760   5.527  -8.838  0.00  0.00    +0.001 A 
ATOM     13  C   UNL     1       2.039   6.068  -9.900  0.00  0.00    +0.011 A 
ATOM     14  C   UNL     1       0.658   6.196  -9.755  0.00  0.00    +0.057 A 
ATOM     15 CL   UNL     1      -0.114   7.509 -10.646  0.00  0.00    -0.082 Cl
ATOM     16  C   UNL     1      -0.010   5.560  -8.709  0.00  0.00    +0.010 A 
ENDROOT
BRANCH   6  17
ATOM     17  C   UNL     1       4.966   6.469 -10.591  0.00  0.00    +0.000 A 
ATOM     18  C   UNL     1       5.239   5.311 -11.315  0.00  0.00    +0.001 A 
ATOM     19  C   UNL     1       6.303   5.234 -12.207  0.00  0.00    +0.011 A 
ATOM     20  C   UNL     1       7.205   6.288 -12.334  0.00  0.00    +0.058 A 
ATOM     21 CL   UNL     1       8.944   6.018 -12.313  0.00  0.00    -0.082 Cl
ATOM     22  C   UNL     1       6.626   7.515 -12.042  0.00  0.00    +0.011 A 
ATOM     23  C   UNL     1       5.536   7.598 -11.179  0.00  0.00    +0.001 A 
ENDBRANCH   6  17
BRANCH   1  24
ATOM     24  C   UNL     1       0.036   4.538  -6.415  0.00  0.00    +0.190 C 
ATOM     25  O   UNL     1      -1.347   4.418  -7.045  0.00  0.00    -0.217 OA
BRANCH  24  26
ATOM     26  C   UNL     1      -0.129   6.168  -6.166  0.00  0.00    +0.110 C 
BRANCH  26  27
ATOM     27  N   UNL     1      -0.883   6.235  -4.910  0.00  0.00    -0.270 NA
BRANCH  27  28
ATOM     28  C   UNL     1      -1.836   7.324  -4.961  0.00  0.00    +0.072 C 
BRANCH  28  29
ATOM     29  C   UNL     1      -2.413   7.689  -3.636  0.00  0.00    +0.017 C 
BRANCH  29  31
ATOM     30  C   UNL     1      -3.580   6.505  -2.616  0.00  0.00    +0.000 C 
ATOM     31  C   UNL     1      -3.305   6.623  -3.066  0.00  0.00    +0.001 C 
ENDBRANCH  29  31
ENDBRANCH  28  29
ENDBRANCH  27  28
BRANCH  27  32
ATOM     32  C   UNL     1       0.061   6.470  -3.821  0.00  0.00    +0.072 C 
BRANCH  32  33
ATOM     33  C   UNL     1       0.053   5.281  -2.888  0.00  0.00    +0.017 C 
BRANCH  33  34
ATOM     34  C   UNL     1       0.124   5.682  -1.432  0.00  0.00    +0.001 C 
ATOM     35  C   UNL     1       1.443   6.394  -1.222  0.00  0.00    +0.000 C 
ENDBRANCH  33  34
ENDBRANCH  32  33
ENDBRANCH  27  32
ENDBRANCH  26  27
ENDBRANCH  24  26
ENDBRANCH   1  24
TORSDOF 10
ENDMDL
MODEL 8
REMARK VINA RESULT:      -7.7      1.737      4.633
REMARK  Name = 
REMARK  10 active torsions:
REMARK  status: ('A' for Active; 'I' for Inactive)
REMARK    1  A    between atoms: C_2  and  C_3
REMARK    2  A    between atoms: C_3  and  C_4
REMARK    3  A    between atoms: C_4  and  N_5
REMARK    4  A    between atoms: N_5  and  C_6
REMARK    5  A    between atoms: N_5  and  C_10
REMARK    6  A    between atoms: C_6  and  C_7
REMARK    7  A    between atoms: C_7  and  C_8
REMARK    8  A    between atoms: C_10  and  C_11
REMARK    9  A    between atoms: C_11  and  C_13
REMARK   10  A    between atoms: C_28  and  C_29
REMARK                            x       y       z     vdW  Elec       q    Type
REMARK                         _______ _______ _______ _____ _____    ______ ____
ROOT
ATOM      1  C   UNL     1       2.746   6.671  -9.293  0.00  0.00    +0.010 A 
ATOM      2  C   UNL     1       2.566   6.686  -7.901  0.00  0.00    -0.002 A 
ATOM      3  C   UNL     1       3.490   6.542  -6.767  0.00  0.00    -0.000 A 
ATOM      4  C   UNL     1       2.761   6.680  -5.601  0.00  0.00    +0.001 A 
ATOM      5  C   UNL     1       1.344   6.695  -5.999  0.00  0.00    +0.000 C 
ATOM      6  C   UNL     1       0.372   6.161  -5.257  0.00  0.00    +0.000 C 
ATOM      7  C   UNL     1       3.381   6.403  -4.389  0.00  0.00    +0.011 A 
ATOM      8  C   UNL     1       4.600   5.747  -4.301  0.00  0.00    +0.058 A 
ATOM      9 CL   UNL     1       4.933   4.691  -2.937  0.00  0.00    -0.082 Cl
ATOM     10  C   UNL     1       5.345   5.708  -5.467  0.00  0.00    +0.011 A 
ATOM     11  C   UNL     1       4.831   6.185  -6.666  0.00  0.00    +0.001 A 
ATOM     12  C   UNL     1       1.258   6.529  -7.459  0.00  0.00    +0.001 A 
ATOM     13  C   UNL     1       0.274   6.005  -8.293  0.00  0.00    +0.011 A 
ATOM     14  C   UNL     1       0.660   5.543  -9.551  0.00  0.00    +0.057 A 
ATOM     15 CL   UNL     1      -0.303   4.237 -10.246  0.00  0.00    -0.082 Cl
ATOM     16  C   UNL     1       1.922   5.843 -10.063  0.00  0.00    +0.010 A 
ENDROOT
BRANCH   6  17
ATOM     17  C   UNL     1      -1.047   6.394  -5.589  0.00  0.00    +0.000 A 
ATOM     18  C   UNL     1      -1.673   7.607  -5.312  0.00  0.00    +0.001 A 
ATOM     19  C   UNL     1      -2.794   7.686  -4.491  0.00  0.00    +0.011 A 
ATOM     20  C   UNL     1      -3.272   6.558  -3.827  0.00  0.00    +0.058 A 
ATOM     21 CL   UNL     1      -3.667   6.599  -2.113  0.00  0.00    -0.082 Cl
ATOM     22  C   UNL     1      -2.988   5.384  -4.511  0.00  0.00    +0.011 A 
ATOM     23  C   UNL     1      -1.891   5.308  -5.365  0.00  0.00    +0.001 A 
ENDBRANCH   6  17
BRANCH   1  24
ATOM     24  C   UNL     1       4.318   6.489  -9.674  0.00  0.00    +0.190 C 
ATOM     25  O   UNL     1       4.313   7.733 -10.554  0.00  0.00    -0.217 OA
BRANCH  24  26
ATOM     26  C   UNL     1       3.980   5.486 -10.949  0.00  0.00    +0.110 C 
BRANCH  26  27
ATOM     27  N   UNL     1       4.865   5.986 -12.006  0.00  0.00    -0.270 NA
BRANCH  27  28
ATOM     28  C   UNL     1       4.312   5.673 -13.307  0.00  0.00    +0.072 C 
BRANCH  28  29
ATOM     29  C   UNL     1       2.880   6.056 -13.468  0.00  0.00    +0.017 C 
BRANCH  29  31
ATOM     30  C   UNL     1       1.511   4.815 -14.089  0.00  0.00    +0.000 C 
ATOM     31  C   UNL     1       2.007   4.913 -13.899  0.00  0.00    +0.001 C 
ENDBRANCH  29  31
ENDBRANCH  28  29
ENDBRANCH  27  28
BRANCH  27  32
ATOM     32  C   UNL     1       6.164   5.334 -11.864  0.00  0.00    +0.072 C 
BRANCH  32  33
ATOM     33  C   UNL     1       7.257   6.374 -11.949  0.00  0.00    +0.017 C 
BRANCH  33  34
ATOM     34  C   UNL     1       7.704   6.863 -10.590  0.00  0.00    +0.001 C 
ATOM     35  C   UNL     1       7.689   5.673  -9.653  0.00  0.00    +0.000 C 
ENDBRANCH  33  34
ENDBRANCH  32  33
ENDBRANCH  27  32
ENDBRANCH  26  27
ENDBRANCH  24  26
ENDBRANCH   1  24
TORSDOF 10
ENDMDL
MODEL 9
REMARK VINA RESULT:      -7.5      4.299      9.682
REMARK  Name = 
REMARK  10 active torsions:
REMARK  status: ('A' for Active; 'I' for Inactive)
REMARK    1  A    between atoms: C_2  and  C_3
REMARK    2  A    between atoms: C_3  and  C_4
REMARK    3  A    between atoms: C_4  and  N_5
REMARK    4  A    between atoms: N_5  and  C_6
REMARK    5  A    between atoms: N_5  and  C_10
REMARK    6  A    between atoms: C_6  and  C_7
REMARK    7  A    between atoms: C_7  and  C_8
REMARK    8  A    between atoms: C_10  and  C_11
REMARK    9  A    between atoms: C_11  and  C_13
REMARK   10  A    between atoms: C_28  and  C_29
REMARK                            x       y       z     vdW  Elec       q    Type
REMARK                         _______ _______ _______ _____ _____    ______ ____
ROOT
ATOM      1  C   UNL     1      -1.354   5.373  -3.714  0.00  0.00    +0.010 A 
ATOM      2  C   UNL     1      -0.192   5.337  -4.501  0.00  0.00    -0.002 A 
ATOM      3  C   UNL     1       1.240   5.423  -4.183  0.00  0.00    -0.000 A 
ATOM      4  C   UNL     1       1.949   5.289  -5.362  0.00  0.00    +0.001 A 
ATOM      5  C   UNL     1       0.956   5.336  -6.449  0.00  0.00    +0.000 C 
ATOM      6  C   UNL     1       1.201   5.892  -7.637  0.00  0.00    +0.000 C 
ATOM      7  C   UNL     1       3.319   5.518  -5.347  0.00  0.00    +0.011 A 
ATOM      8  C   UNL     1       3.968   6.125  -4.282  0.00  0.00    +0.058 A 
ATOM      9 CL   UNL     1       5.373   7.140  -4.573  0.00  0.00    -0.082 Cl
ATOM     10  C   UNL     1       3.263   6.159  -3.091  0.00  0.00    +0.011 A 
ATOM     11  C   UNL     1       1.945   5.726  -3.023  0.00  0.00    +0.001 A 
ATOM     12  C   UNL     1      -0.380   5.534  -5.863  0.00  0.00    +0.001 A 
ATOM     13  C   UNL     1      -1.548   6.113  -6.354  0.00  0.00    +0.011 A 
ATOM     14  C   UNL     1      -2.481   6.585  -5.431  0.00  0.00    +0.057 A 
ATOM     15 CL   UNL     1      -3.489   7.940  -5.945  0.00  0.00    -0.082 Cl
ATOM     16  C   UNL     1      -2.382   6.246  -4.082  0.00  0.00    +0.010 A 
ENDROOT
BRANCH   6  17
ATOM     17  C   UNL     1       0.259   5.720  -8.759  0.00  0.00    +0.000 A 
ATOM     18  C   UNL     1       0.174   4.523  -9.466  0.00  0.00    +0.001 A 
ATOM     19  C   UNL     1       0.401   4.460 -10.837  0.00  0.00    +0.011 A 
ATOM     20  C   UNL     1       0.828   5.584 -11.541  0.00  0.00    +0.058 A 
ATOM     21 CL   UNL     1       2.180   5.507 -12.665  0.00  0.00    -0.082 Cl
ATOM     22  C   UNL     1       0.395   6.767 -10.959  0.00  0.00    +0.011 A 
ATOM     23  C   UNL     1       0.127   6.829  -9.593  0.00  0.00    +0.001 A 
ENDBRANCH   6  17
BRANCH   1  24
ATOM     24  C   UNL     1      -0.982   5.502  -2.134  0.00  0.00    +0.190 C 
ATOM     25  O   UNL     1      -2.316   4.903  -1.706  0.00  0.00    -0.217 OA
BRANCH  24  26
ATOM     26  C   UNL     1      -1.554   7.053  -2.039  0.00  0.00    +0.110 C 
BRANCH  26  27
ATOM     27  N   UNL     1      -1.068   7.505  -0.732  0.00  0.00    -0.270 NA
BRANCH  27  28
ATOM     28  C   UNL     1      -0.108   6.558  -0.204  0.00  0.00    +0.072 C 
BRANCH  28  29
ATOM     29  C   UNL     1       1.258   7.120  -0.009  0.00  0.00    +0.017 C 
BRANCH  29  31
ATOM     30  C   UNL     1       1.474   8.277   1.547  0.00  0.00    +0.000 C 
ATOM     31  C   UNL     1       1.310   8.196   1.038  0.00  0.00    +0.001 C 
ENDBRANCH  29  31
ENDBRANCH  28  29
ENDBRANCH  27  28
BRANCH  27  32
ATOM     32  C   UNL     1      -2.208   7.594   0.176  0.00  0.00    +0.072 C 
BRANCH  32  33
ATOM     33  C   UNL     1      -1.953   6.724   1.386  0.00  0.00    +0.017 C 
BRANCH  33  34
ATOM     34  C   UNL     1      -2.149   7.466   2.689  0.00  0.00    +0.001 C 
ATOM     35  C   UNL     1      -2.377   8.924   2.351  0.00  0.00    +0.000 C 
ENDBRANCH  33  34
ENDBRANCH  32  33
ENDBRANCH  27  32
ENDBRANCH  26  27
ENDBRANCH  24  26
ENDBRANCH   1  24
TORSDOF 10
ENDMDL
