MODEL 1
REMARK VINA RESULT:      -5.0      0.000      0.000
REMARK  Name = 
REMARK  0 active torsions:
REMARK  status: ('A' for Active; 'I' for Inactive)
REMARK                            x       y       z     vdW  Elec       q    Type
REMARK                         _______ _______ _______ _____ _____    ______ ____
ROOT
ATOM      1  C   UNL     1       3.737   5.660 -10.776  0.00  0.00    +0.054 C 
ATOM      2  C   UNL     1       5.224   5.691 -10.876  0.00  0.00    +0.080 A 
ATOM      3  N   UNL     1       5.903   5.687  -9.702  0.00  0.00    -0.325 N 
ATOM      4  C   UNL     1       5.320   5.124  -8.485  0.00  0.00    +0.130 C 
ATOM      5  C   UNL     1       7.214   6.016  -9.770  0.00  0.00    +0.079 A 
ATOM      6  C   UNL     1       7.941   5.795 -10.931  0.00  0.00    +0.064 A 
ATOM      7  C   UNL     1       7.294   5.339 -12.069  0.00  0.00    +0.237 A 
ATOM      8  O   UNL     1       7.841   4.652 -12.951  0.00  0.00    -0.283 OA
ATOM      9  C   UNL     1       5.905   5.379 -12.042  0.00  0.00    +0.246 A 
ATOM     10  O   UNL     1       5.153   5.280 -13.195  0.00  0.00    -0.282 OA
ENDROOT
TORSDOF 0
ENDMDL
MODEL 2
REMARK VINA RESULT:      -4.9      9.199     10.937
REMARK  Name = 
REMARK  0 active torsions:
REMARK  status: ('A' for Active; 'I' for Inactive)
REMARK                            x       y       z     vdW  Elec       q    Type
REMARK                         _______ _______ _______ _____ _____    ______ ____
ROOT
ATOM      1  C   UNL     1       1.004   5.177  -4.814  0.00  0.00    +0.054 C 
ATOM      2  C   UNL     1      -0.369   5.581  -4.399  0.00  0.00    +0.080 A 
ATOM      3  N   UNL     1      -1.225   5.907  -5.399  0.00  0.00    -0.325 N 
ATOM      4  C   UNL     1      -1.057   5.375  -6.751  0.00  0.00    +0.130 C 
ATOM      5  C   UNL     1      -2.355   6.555  -5.031  0.00  0.00    +0.079 A 
ATOM      6  C   UNL     1      -2.890   6.382  -3.762  0.00  0.00    +0.064 A 
ATOM      7  C   UNL     1      -2.200   5.629  -2.824  0.00  0.00    +0.237 A 
ATOM      8  O   UNL     1      -2.746   5.000  -1.900  0.00  0.00    -0.283 OA
ATOM      9  C   UNL     1      -0.885   5.308  -3.142  0.00  0.00    +0.246 A 
ATOM     10  O   UNL     1       0.006   4.868  -2.184  0.00  0.00    -0.282 OA
ENDROOT
TORSDOF 0
ENDMDL
MODEL 3
REMARK VINA RESULT:      -4.9      1.731      2.198
REMARK  Name = 
REMARK  0 active torsions:
REMARK  status: ('A' for Active; 'I' for Inactive)
REMARK                            x       y       z     vdW  Elec       q    Type
REMARK                         _______ _______ _______ _____ _____    ______ ____
ROOT
ATOM      1  C   UNL     1       4.538   5.036 -13.427  0.00  0.00    +0.054 C 
ATOM      2  C   UNL     1       5.470   5.847 -12.594  0.00  0.00    +0.080 A 
ATOM      3  N   UNL     1       4.909   6.553 -11.581  0.00  0.00    -0.325 N 
ATOM      4  C   UNL     1       3.646   6.139 -10.972  0.00  0.00    +0.130 C 
ATOM      5  C   UNL     1       5.682   7.511 -11.020  0.00  0.00    +0.079 A 
ATOM      6  C   UNL     1       7.066   7.404 -11.036  0.00  0.00    +0.064 A 
ATOM      7  C   UNL     1       7.666   6.364 -11.731  0.00  0.00    +0.237 A 
ATOM      8  O   UNL     1       8.768   5.872 -11.430  0.00  0.00    -0.283 OA
ATOM      9  C   UNL     1       6.841   5.641 -12.585  0.00  0.00    +0.246 A 
ATOM     10  O   UNL     1       7.355   4.821 -13.569  0.00  0.00    -0.282 OA
ENDROOT
TORSDOF 0
ENDMDL
MODEL 4
REMARK VINA RESULT:      -4.6      8.001      8.964
REMARK  Name = 
REMARK  0 active torsions:
REMARK  status: ('A' for Active; 'I' for Inactive)
REMARK                            x       y       z     vdW  Elec       q    Type
REMARK                         _______ _______ _______ _____ _____    ______ ____
ROOT
ATOM      1  C   UNL     1      -2.707   6.055  -6.306  0.00  0.00    +0.054 C 
ATOM      2  C   UNL     1      -1.435   5.722  -5.607  0.00  0.00    +0.080 A 
ATOM      3  N   UNL     1      -1.506   5.604  -4.258  0.00  0.00    -0.325 N 
ATOM      4  C   UNL     1      -2.756   5.251  -3.588  0.00  0.00    +0.130 C 
ATOM      5  C   UNL     1      -0.325   5.605  -3.595  0.00  0.00    +0.079 A 
ATOM      6  C   UNL     1       0.836   5.165  -4.216  0.00  0.00    +0.064 A 
ATOM      7  C   UNL     1       0.810   4.831  -5.561  0.00  0.00    +0.237 A 
ATOM      8  O   UNL     1       1.570   3.996  -6.084  0.00  0.00    -0.283 OA
ATOM      9  C   UNL     1      -0.329   5.206  -6.264  0.00  0.00    +0.246 A 
ATOM     10  O   UNL     1      -0.351   5.242  -7.644  0.00  0.00    -0.282 OA
ENDROOT
TORSDOF 0
ENDMDL
MODEL 5
REMARK VINA RESULT:      -4.5      9.315     10.615
REMARK  Name = 
REMARK  0 active torsions:
REMARK  status: ('A' for Active; 'I' for Inactive)
REMARK                            x       y       z     vdW  Elec       q    Type
REMARK                         _______ _______ _______ _____ _____    ______ ____
ROOT
ATOM      1  C   UNL     1       0.184   5.202  -1.491  0.00  0.00    +0.054 C 
ATOM      2  C   UNL     1      -0.351   5.706  -2.787  0.00  0.00    +0.080 A 
ATOM      3  N   UNL     1       0.565   6.169  -3.673  0.00  0.00    -0.325 N 
ATOM      4  C   UNL     1       1.951   5.706  -3.650  0.00  0.00    +0.130 C 
ATOM      5  C   UNL     1       0.081   6.896  -4.708  0.00  0.00    +0.079 A 
ATOM      6  C   UNL     1      -1.213   6.696  -5.169  0.00  0.00    +0.064 A 
ATOM      7  C   UNL     1      -2.056   5.827  -4.493  0.00  0.00    +0.237 A 
ATOM      8  O   UNL     1      -2.983   5.197  -5.034  0.00  0.00    -0.283 OA
ATOM      9  C   UNL     1      -1.627   5.406  -3.240  0.00  0.00    +0.246 A 
ATOM     10  O   UNL     1      -2.491   4.828  -2.332  0.00  0.00    -0.282 OA
ENDROOT
TORSDOF 0
ENDMDL
MODEL 6
REMARK VINA RESULT:      -4.5      5.119      5.728
REMARK  Name = 
REMARK  0 active torsions:
REMARK  status: ('A' for Active; 'I' for Inactive)
REMARK                            x       y       z     vdW  Elec       q    Type
REMARK                         _______ _______ _______ _____ _____    ______ ____
ROOT
ATOM      1  C   UNL     1       2.898   6.505  -5.928  0.00  0.00    +0.054 C 
ATOM      2  C   UNL     1       2.530   6.077  -7.306  0.00  0.00    +0.080 A 
ATOM      3  N   UNL     1       2.380   4.743  -7.499  0.00  0.00    -0.325 N 
ATOM      4  C   UNL     1       2.028   3.848  -6.398  0.00  0.00    +0.130 C 
ATOM      5  C   UNL     1       2.347   4.325  -8.787  0.00  0.00    +0.079 A 
ATOM      6  C   UNL     1       1.907   5.171  -9.795  0.00  0.00    +0.064 A 
ATOM      7  C   UNL     1       1.606   6.492  -9.499  0.00  0.00    +0.237 A 
ATOM      8  O   UNL     1       0.773   7.172 -10.126  0.00  0.00    -0.283 OA
ATOM      9  C   UNL     1       2.014   6.950  -8.252  0.00  0.00    +0.246 A 
ATOM     10  O   UNL     1       2.085   8.297  -7.960  0.00  0.00    -0.282 OA
ENDROOT
TORSDOF 0
ENDMDL
MODEL 7
REMARK VINA RESULT:      -4.4      8.189      9.353
REMARK  Name = 
REMARK  0 active torsions:
REMARK  status: ('A' for Active; 'I' for Inactive)
REMARK                            x       y       z     vdW  Elec       q    Type
REMARK                         _______ _______ _______ _____ _____    ______ ____
ROOT
ATOM      1  C   UNL     1       0.269   5.406  -2.971  0.00  0.00    +0.054 C 
ATOM      2  C   UNL     1      -0.455   5.450  -4.273  0.00  0.00    +0.080 A 
ATOM      3  N   UNL     1      -1.617   6.148  -4.289  0.00  0.00    -0.325 N 
ATOM      4  C   UNL     1      -1.869   7.232  -3.341  0.00  0.00    +0.130 C 
ATOM      5  C   UNL     1      -2.421   5.946  -5.359  0.00  0.00    +0.079 A 
ATOM      6  C   UNL     1      -1.889   5.559  -6.582  0.00  0.00    +0.064 A 
ATOM      7  C   UNL     1      -0.537   5.266  -6.680  0.00  0.00    +0.237 A 
ATOM      8  O   UNL     1       0.129   5.404  -7.721  0.00  0.00    -0.283 OA
ATOM      9  C   UNL     1       0.150   5.132  -5.479  0.00  0.00    +0.246 A 
ATOM     10  O   UNL     1       1.388   4.524  -5.415  0.00  0.00    -0.282 OA
ENDROOT
TORSDOF 0
ENDMDL
MODEL 8
REMARK VINA RESULT:      -4.3      9.854     10.949
REMARK  Name = 
REMARK  0 active torsions:
REMARK  status: ('A' for Active; 'I' for Inactive)
REMARK                            x       y       z     vdW  Elec       q    Type
REMARK                         _______ _______ _______ _____ _____    ______ ____
ROOT
ATOM      1  C   UNL     1      -2.369   5.594  -5.024  0.00  0.00    +0.054 C 
ATOM      2  C   UNL     1      -1.296   5.598  -3.991  0.00  0.00    +0.080 A 
ATOM      3  N   UNL     1      -0.108   6.135  -4.364  0.00  0.00    -0.325 N 
ATOM      4  C   UNL     1      -0.022   7.132  -5.429  0.00  0.00    +0.130 C 
ATOM      5  C   UNL     1       0.946   5.874  -3.555  0.00  0.00    +0.079 A 
ATOM      6  C   UNL     1       0.756   5.615  -2.205  0.00  0.00    +0.064 A 
ATOM      7  C   UNL     1      -0.532   5.511  -1.701  0.00  0.00    +0.237 A 
ATOM      8  O   UNL     1      -0.843   5.782  -0.528  0.00  0.00    -0.283 OA
ATOM      9  C   UNL     1      -1.552   5.417  -2.641  0.00  0.00    +0.246 A 
ATOM     10  O   UNL     1      -2.815   4.977  -2.300  0.00  0.00    -0.282 OA
ENDROOT
TORSDOF 0
ENDMDL
MODEL 9
REMARK VINA RESULT:      -4.2      2.257      3.776
REMARK  Name = 
REMARK  0 active torsions:
REMARK  status: ('A' for Active; 'I' for Inactive)
REMARK                            x       y       z     vdW  Elec       q    Type
REMARK                         _______ _______ _______ _____ _____    ______ ____
ROOT
ATOM      1  C   UNL     1       8.184   5.690 -12.200  0.00  0.00    +0.054 C 
ATOM      2  C   UNL     1       6.923   5.899 -11.434  0.00  0.00    +0.080 A 
ATOM      3  N   UNL     1       5.797   6.068 -12.169  0.00  0.00    -0.325 N 
ATOM      4  C   UNL     1       5.682   5.530 -13.524  0.00  0.00    +0.130 C 
ATOM      5  C   UNL     1       4.719   6.553 -11.509  0.00  0.00    +0.079 A 
ATOM      6  C   UNL     1       4.568   6.338 -10.146  0.00  0.00    +0.064 A 
ATOM      7  C   UNL     1       5.583   5.720  -9.432  0.00  0.00    +0.237 A 
ATOM      8  O   UNL     1       5.398   5.043  -8.405  0.00  0.00    -0.283 OA
ATOM      9  C   UNL     1       6.802   5.588 -10.088  0.00  0.00    +0.246 A 
ATOM     10  O   UNL     1       7.968   5.310  -9.405  0.00  0.00    -0.282 OA
ENDROOT
TORSDOF 0
ENDMDL
