MODEL 1
REMARK VINA RESULT:      -4.1      0.000      0.000
REMARK  Name = 
REMARK  3 active torsions:
REMARK  status: ('A' for Active; 'I' for Inactive)
REMARK    1  A    between atoms: C_2  and  C_4
REMARK    2  A    between atoms: C_4  and  C_6
REMARK    3  A    between atoms: C_6  and  C_8
REMARK                            x       y       z     vdW  Elec       q    Type
REMARK                         _______ _______ _______ _____ _____    ______ ____
ROOT
ATOM      1  C   UNL     1      -1.507   6.670  -2.974  0.00  0.00    +0.182 C 
ATOM      2  S   UNL     1      -2.011   7.726  -4.477  0.00  0.00    -0.070 S 
ENDROOT
BRANCH   1   4
ATOM      3  O   UNL     1      -2.845   4.642  -2.824  0.00  0.00    -0.245 OA
ATOM      4  C   UNL     1      -2.817   5.834  -2.974  0.00  0.00    +0.377 C 
ATOM      5  O   UNL     1      -3.889   6.591  -2.486  0.00  0.00    -0.245 OA
ENDBRANCH   1   4
BRANCH   1   6
ATOM      6  C   UNL     1      -0.551   5.526  -3.661  0.00  0.00    +0.182 C 
ATOM      7  S   UNL     1       0.423   6.623  -4.872  0.00  0.00    -0.070 S 
BRANCH   6   8
ATOM      8  C   UNL     1       0.549   5.461  -2.570  0.00  0.00    +0.377 C 
ATOM      9  O   UNL     1       0.312   4.524  -1.559  0.00  0.00    -0.245 OA
ATOM     10  O   UNL     1       1.592   6.083  -2.593  0.00  0.00    -0.245 OA
ENDBRANCH   6   8
ENDBRANCH   1   6
TORSDOF 3
ENDMDL
MODEL 2
REMARK VINA RESULT:      -4.1     10.603     12.057
REMARK  Name = 
REMARK  3 active torsions:
REMARK  status: ('A' for Active; 'I' for Inactive)
REMARK    1  A    between atoms: C_2  and  C_4
REMARK    2  A    between atoms: C_4  and  C_6
REMARK    3  A    between atoms: C_6  and  C_8
REMARK                            x       y       z     vdW  Elec       q    Type
REMARK                         _______ _______ _______ _____ _____    ______ ____
ROOT
ATOM      1  C   UNL     1       6.341   6.608 -12.590  0.00  0.00    +0.182 C 
ATOM      2  S   UNL     1       6.603   8.045 -11.367  0.00  0.00    -0.070 S 
ENDROOT
BRANCH   1   4
ATOM      3  O   UNL     1       8.409   6.232 -11.361  0.00  0.00    -0.245 OA
ATOM      4  C   UNL     1       7.730   5.968 -12.318  0.00  0.00    +0.377 C 
ATOM      5  O   UNL     1       7.788   4.668 -12.835  0.00  0.00    -0.245 OA
ENDBRANCH   1   4
BRANCH   1   6
ATOM      6  C   UNL     1       5.464   5.548 -11.693  0.00  0.00    +0.182 C 
ATOM      7  S   UNL     1       4.619   6.771 -10.507  0.00  0.00    -0.070 S 
BRANCH   6   8
ATOM      8  C   UNL     1       4.258   5.379 -12.652  0.00  0.00    +0.377 C 
ATOM      9  O   UNL     1       4.439   4.420 -13.653  0.00  0.00    -0.245 OA
ATOM     10  O   UNL     1       3.188   5.941 -12.531  0.00  0.00    -0.245 OA
ENDBRANCH   6   8
ENDBRANCH   1   6
TORSDOF 3
ENDMDL
MODEL 3
REMARK VINA RESULT:      -4.1     10.515     11.555
REMARK  Name = 
REMARK  3 active torsions:
REMARK  status: ('A' for Active; 'I' for Inactive)
REMARK    1  A    between atoms: C_2  and  C_4
REMARK    2  A    between atoms: C_4  and  C_6
REMARK    3  A    between atoms: C_6  and  C_8
REMARK                            x       y       z     vdW  Elec       q    Type
REMARK                         _______ _______ _______ _____ _____    ______ ____
ROOT
ATOM      1  C   UNL     1       5.334   5.500 -11.488  0.00  0.00    +0.182 C 
ATOM      2  S   UNL     1       4.431   6.803 -10.431  0.00  0.00    -0.070 S 
ENDROOT
BRANCH   1   4
ATOM      3  O   UNL     1       3.243   6.079 -12.592  0.00  0.00    -0.245 OA
ATOM      4  C   UNL     1       4.140   5.291 -12.461  0.00  0.00    +0.377 C 
ATOM      5  O   UNL     1       4.533   4.539 -13.574  0.00  0.00    -0.245 OA
ENDBRANCH   1   4
BRANCH   1   6
ATOM      6  C   UNL     1       6.235   6.436 -12.493  0.00  0.00    +0.182 C 
ATOM      7  S   UNL     1       6.629   7.871 -11.308  0.00  0.00    -0.070 S 
BRANCH   6   8
ATOM      8  C   UNL     1       7.592   5.705 -12.332  0.00  0.00    +0.377 C 
ATOM      9  O   UNL     1       8.481   6.317 -11.442  0.00  0.00    -0.245 OA
ATOM     10  O   UNL     1       7.874   4.639 -12.840  0.00  0.00    -0.245 OA
ENDBRANCH   6   8
ENDBRANCH   1   6
TORSDOF 3
ENDMDL
MODEL 4
REMARK VINA RESULT:      -4.0      9.642     10.724
REMARK  Name = 
REMARK  3 active torsions:
REMARK  status: ('A' for Active; 'I' for Inactive)
REMARK    1  A    between atoms: C_2  and  C_4
REMARK    2  A    between atoms: C_4  and  C_6
REMARK    3  A    between atoms: C_6  and  C_8
REMARK                            x       y       z     vdW  Elec       q    Type
REMARK                         _______ _______ _______ _____ _____    ______ ____
ROOT
ATOM      1  C   UNL     1       4.914   5.310 -10.886  0.00  0.00    +0.182 C 
ATOM      2  S   UNL     1       5.220   5.426  -9.009  0.00  0.00    -0.070 S 
ENDROOT
BRANCH   1   4
ATOM      3  O   UNL     1       2.921   6.471 -11.665  0.00  0.00    -0.245 OA
ATOM      4  C   UNL     1       3.848   6.441 -10.901  0.00  0.00    +0.377 C 
ATOM      5  O   UNL     1       3.670   6.971  -9.617  0.00  0.00    -0.245 OA
ENDBRANCH   1   4
BRANCH   1   6
ATOM      6  C   UNL     1       6.150   6.206 -11.493  0.00  0.00    +0.182 C 
ATOM      7  S   UNL     1       7.459   5.872 -10.154  0.00  0.00    -0.070 S 
BRANCH   6   8
ATOM      8  C   UNL     1       6.693   5.180 -12.520  0.00  0.00    +0.377 C 
ATOM      9  O   UNL     1       5.845   4.938 -13.605  0.00  0.00    -0.245 OA
ATOM     10  O   UNL     1       7.795   4.672 -12.482  0.00  0.00    -0.245 OA
ENDBRANCH   6   8
ENDBRANCH   1   6
TORSDOF 3
ENDMDL
MODEL 5
REMARK VINA RESULT:      -4.0     10.310     11.736
REMARK  Name = 
REMARK  3 active torsions:
REMARK  status: ('A' for Active; 'I' for Inactive)
REMARK    1  A    between atoms: C_2  and  C_4
REMARK    2  A    between atoms: C_4  and  C_6
REMARK    3  A    between atoms: C_6  and  C_8
REMARK                            x       y       z     vdW  Elec       q    Type
REMARK                         _______ _______ _______ _____ _____    ______ ____
ROOT
ATOM      1  C   UNL     1       6.681   6.503 -12.209  0.00  0.00    +0.182 C 
ATOM      2  S   UNL     1       8.484   6.086 -11.757  0.00  0.00    -0.070 S 
ENDROOT
BRANCH   1   4
ATOM      3  O   UNL     1       7.504   4.727 -13.657  0.00  0.00    -0.245 OA
ATOM      4  C   UNL     1       6.573   5.394 -13.293  0.00  0.00    +0.377 C 
ATOM      5  O   UNL     1       5.301   4.810 -13.280  0.00  0.00    -0.245 OA
ENDBRANCH   1   4
BRANCH   1   6
ATOM      6  C   UNL     1       5.840   5.710 -11.042  0.00  0.00    +0.182 C 
ATOM      7  S   UNL     1       7.143   5.731  -9.655  0.00  0.00    -0.070 S 
BRANCH   6   8
ATOM      8  C   UNL     1       5.007   6.904 -10.510  0.00  0.00    +0.377 C 
ATOM      9  O   UNL     1       5.407   8.154 -10.990  0.00  0.00    -0.245 OA
ATOM     10  O   UNL     1       4.022   6.807  -9.806  0.00  0.00    -0.245 OA
ENDBRANCH   6   8
ENDBRANCH   1   6
TORSDOF 3
ENDMDL
MODEL 6
REMARK VINA RESULT:      -3.9     12.613     13.387
REMARK  Name = 
REMARK  3 active torsions:
REMARK  status: ('A' for Active; 'I' for Inactive)
REMARK    1  A    between atoms: C_2  and  C_4
REMARK    2  A    between atoms: C_4  and  C_6
REMARK    3  A    between atoms: C_6  and  C_8
REMARK                            x       y       z     vdW  Elec       q    Type
REMARK                         _______ _______ _______ _____ _____    ______ ____
ROOT
ATOM      1  C   UNL     1       6.652   6.842 -13.000  0.00  0.00    +0.182 C 
ATOM      2  S   UNL     1       5.785   6.388 -11.366  0.00  0.00    -0.070 S 
ENDROOT
BRANCH   1   4
ATOM      3  O   UNL     1       8.609   6.128 -11.740  0.00  0.00    -0.245 OA
ATOM      4  C   UNL     1       7.911   5.980 -12.708  0.00  0.00    +0.377 C 
ATOM      5  O   UNL     1       7.760   4.688 -13.227  0.00  0.00    -0.245 OA
ENDBRANCH   1   4
BRANCH   1   6
ATOM      6  C   UNL     1       5.952   5.802 -14.062  0.00  0.00    +0.182 C 
ATOM      7  S   UNL     1       4.277   5.557 -13.195  0.00  0.00    -0.070 S 
BRANCH   6   8
ATOM      8  C   UNL     1       5.455   6.838 -15.103  0.00  0.00    +0.377 C 
ATOM      9  O   UNL     1       6.285   7.952 -15.258  0.00  0.00    -0.245 OA
ATOM     10  O   UNL     1       4.484   6.696 -15.817  0.00  0.00    -0.245 OA
ENDBRANCH   6   8
ENDBRANCH   1   6
TORSDOF 3
ENDMDL
MODEL 7
REMARK VINA RESULT:      -3.8      1.660      2.077
REMARK  Name = 
REMARK  3 active torsions:
REMARK  status: ('A' for Active; 'I' for Inactive)
REMARK    1  A    between atoms: C_2  and  C_4
REMARK    2  A    between atoms: C_4  and  C_6
REMARK    3  A    between atoms: C_6  and  C_8
REMARK                            x       y       z     vdW  Elec       q    Type
REMARK                         _______ _______ _______ _____ _____    ______ ____
ROOT
ATOM      1  C   UNL     1      -1.235   6.548  -3.314  0.00  0.00    +0.182 C 
ATOM      2  S   UNL     1      -2.066   7.873  -4.402  0.00  0.00    -0.070 S 
ENDROOT
BRANCH   1   4
ATOM      3  O   UNL     1      -2.607   4.673  -2.588  0.00  0.00    -0.245 OA
ATOM      4  C   UNL     1      -2.561   5.797  -3.012  0.00  0.00    +0.377 C 
ATOM      5  O   UNL     1      -3.564   6.694  -2.626  0.00  0.00    -0.245 OA
ENDBRANCH   1   4
BRANCH   1   6
ATOM      6  C   UNL     1      -0.667   5.489  -4.433  0.00  0.00    +0.182 C 
ATOM      7  S   UNL     1      -1.791   5.954  -5.896  0.00  0.00    -0.070 S 
BRANCH   6   8
ATOM      8  C   UNL     1       0.569   6.296  -4.906  0.00  0.00    +0.377 C 
ATOM      9  O   UNL     1       0.639   6.498  -6.288  0.00  0.00    -0.245 OA
ATOM     10  O   UNL     1       1.387   6.812  -4.172  0.00  0.00    -0.245 OA
ENDBRANCH   6   8
ENDBRANCH   1   6
TORSDOF 3
ENDMDL
MODEL 8
REMARK VINA RESULT:      -3.8      1.704      3.700
REMARK  Name = 
REMARK  3 active torsions:
REMARK  status: ('A' for Active; 'I' for Inactive)
REMARK    1  A    between atoms: C_2  and  C_4
REMARK    2  A    between atoms: C_4  and  C_6
REMARK    3  A    between atoms: C_6  and  C_8
REMARK                            x       y       z     vdW  Elec       q    Type
REMARK                         _______ _______ _______ _____ _____    ______ ____
ROOT
ATOM      1  C   UNL     1       0.307   5.447  -4.294  0.00  0.00    +0.182 C 
ATOM      2  S   UNL     1      -0.186   5.551  -6.131  0.00  0.00    -0.070 S 
ENDROOT
BRANCH   1   4
ATOM      3  O   UNL     1       2.160   6.831  -3.533  0.00  0.00    -0.245 OA
ATOM      4  C   UNL     1       1.346   6.599  -4.387  0.00  0.00    +0.377 C 
ATOM      5  O   UNL     1       1.690   6.851  -5.720  0.00  0.00    -0.245 OA
ENDBRANCH   1   4
BRANCH   1   6
ATOM      6  C   UNL     1      -0.880   6.320  -3.569  0.00  0.00    +0.182 C 
ATOM      7  S   UNL     1      -2.340   5.851  -4.696  0.00  0.00    -0.070 S 
BRANCH   6   8
ATOM      8  C   UNL     1      -1.225   5.332  -2.425  0.00  0.00    +0.377 C 
ATOM      9  O   UNL     1      -2.539   4.857  -2.442  0.00  0.00    -0.245 OA
ATOM     10  O   UNL     1      -0.431   4.903  -1.612  0.00  0.00    -0.245 OA
ENDBRANCH   6   8
ENDBRANCH   1   6
TORSDOF 3
ENDMDL
MODEL 9
REMARK VINA RESULT:      -3.7      9.652     11.172
REMARK  Name = 
REMARK  3 active torsions:
REMARK  status: ('A' for Active; 'I' for Inactive)
REMARK    1  A    between atoms: C_2  and  C_4
REMARK    2  A    between atoms: C_4  and  C_6
REMARK    3  A    between atoms: C_6  and  C_8
REMARK                            x       y       z     vdW  Elec       q    Type
REMARK                         _______ _______ _______ _____ _____    ______ ____
ROOT
ATOM      1  C   UNL     1       5.377   5.104 -12.259  0.00  0.00    +0.182 C 
ATOM      2  S   UNL     1       4.591   5.759 -13.866  0.00  0.00    -0.070 S 
ENDROOT
BRANCH   1   4
ATOM      3  O   UNL     1       7.163   6.757 -12.174  0.00  0.00    -0.245 OA
ATOM      4  C   UNL     1       6.783   5.688 -12.571  0.00  0.00    +0.377 C 
ATOM      5  O   UNL     1       7.724   4.662 -12.720  0.00  0.00    -0.245 OA
ENDBRANCH   1   4
BRANCH   1   6
ATOM      6  C   UNL     1       4.935   6.249 -11.168  0.00  0.00    +0.182 C 
ATOM      7  S   UNL     1       3.050   6.212 -11.429  0.00  0.00    -0.070 S 
BRANCH   6   8
ATOM      8  C   UNL     1       4.946   5.367  -9.893  0.00  0.00    +0.377 C 
ATOM      9  O   UNL     1       6.028   5.595  -9.037  0.00  0.00    -0.245 OA
ATOM     10  O   UNL     1       4.066   4.595  -9.572  0.00  0.00    -0.245 OA
ENDBRANCH   6   8
ENDBRANCH   1   6
TORSDOF 3
ENDMDL
