MODEL 1
REMARK VINA RESULT:      -9.1      0.000      0.000
REMARK  Name = 
REMARK  1 active torsions:
REMARK  status: ('A' for Active; 'I' for Inactive)
REMARK    1  A    between atoms: C_2  and  C_4
REMARK                            x       y       z     vdW  Elec       q    Type
REMARK                         _______ _______ _______ _____ _____    ______ ____
ROOT
ATOM      1  C   UNL     1      -1.379   5.464  -3.763  0.00  0.00    +0.058 C 
ATOM      2  C   UNL     1      -0.298   6.202  -4.723  0.00  0.00    +0.007 C 
ATOM      3  C   UNL     1      -0.641   5.196  -5.945  0.00  0.00    +0.000 C 
ATOM      4  C   UNL     1       0.138   6.203  -7.053  0.00  0.00    +0.001 C 
ATOM      5  C   UNL     1       1.585   5.370  -6.805  0.00  0.00    +0.003 C 
ATOM      6  C   UNL     1       1.955   6.265  -5.502  0.00  0.00    +0.000 C 
ATOM      7  C   UNL     1       2.410   6.314  -7.832  0.00  0.00    +0.016 C 
ATOM      8  C   UNL     1       1.906   6.015  -9.191  0.00  0.00    -0.042 C 
ATOM      9  C   UNL     1       2.715   5.609 -10.166  0.00  0.00    +0.029 C 
ATOM     10  C   UNL     1       4.017   4.987  -9.889  0.00  0.00    +0.173 C 
ATOM     11  C   UNL     1       4.301   4.762  -8.437  0.00  0.00    +0.069 C 
ATOM     12  O   UNL     1       5.025   5.324 -10.581  0.00  0.00    -0.291 OA
ATOM     13  C   UNL     1       0.444   5.887  -9.465  0.00  0.00    +0.022 C 
ATOM     14  C   UNL     1       2.108   7.735  -7.536  0.00  0.00    +0.004 C 
ATOM     15  C   UNL     1       3.860   5.983  -7.686  0.00  0.00    +0.012 C 
ATOM     16  C   UNL     1      -0.272   5.267  -8.291  0.00  0.00    +0.004 C 
ATOM     17  C   UNL     1      -2.072   5.937  -6.094  0.00  0.00    +0.000 C 
ATOM     18  C   UNL     1      -0.701   7.552  -5.013  0.00  0.00    +0.000 C 
ATOM     19  C   UNL     1       1.057   5.840  -4.378  0.00  0.00    +0.000 C 
ATOM     20  C   UNL     1      -2.633   5.863  -4.734  0.00  0.00    +0.007 C 
ENDROOT
BRANCH   1  22
ATOM     21  C   UNL     1      -1.516   6.850  -2.398  0.00  0.00    +0.072 C 
ATOM     22  C   UNL     1      -1.602   6.785  -2.862  0.00  0.00    +0.151 C 
ATOM     23  O   UNL     1      -2.785   7.080  -2.645  0.00  0.00    -0.296 OA
ENDBRANCH   1  22
TORSDOF 1
ENDMDL
MODEL 2
REMARK VINA RESULT:      -9.1      1.238      6.588
REMARK  Name = 
REMARK  1 active torsions:
REMARK  status: ('A' for Active; 'I' for Inactive)
REMARK    1  A    between atoms: C_2  and  C_4
REMARK                            x       y       z     vdW  Elec       q    Type
REMARK                         _______ _______ _______ _____ _____    ______ ____
ROOT
ATOM      1  C   UNL     1       4.666   6.712  -9.770  0.00  0.00    +0.058 C 
ATOM      2  C   UNL     1       3.784   5.990  -8.615  0.00  0.00    +0.007 C 
ATOM      3  C   UNL     1       2.408   6.530  -9.277  0.00  0.00    +0.000 C 
ATOM      4  C   UNL     1       1.490   5.451  -8.360  0.00  0.00    +0.001 C 
ATOM      5  C   UNL     1       1.331   6.608  -7.142  0.00  0.00    +0.003 C 
ATOM      6  C   UNL     1       2.753   6.200  -6.475  0.00  0.00    +0.000 C 
ATOM      7  C   UNL     1       0.469   5.620  -6.189  0.00  0.00    +0.016 C 
ATOM      8  C   UNL     1      -0.843   5.424  -6.847  0.00  0.00    -0.042 C 
ATOM      9  C   UNL     1      -1.986   5.713  -6.231  0.00  0.00    +0.029 C 
ATOM     10  C   UNL     1      -2.047   6.650  -5.101  0.00  0.00    +0.173 C 
ATOM     11  C   UNL     1      -0.746   7.315  -4.776  0.00  0.00    +0.069 C 
ATOM     12  O   UNL     1      -2.762   6.361  -4.093  0.00  0.00    -0.291 OA
ATOM     13  C   UNL     1      -0.944   5.158  -8.312  0.00  0.00    +0.022 C 
ATOM     14  C   UNL     1       1.144   4.301  -6.119  0.00  0.00    +0.004 C 
ATOM     15  C   UNL     1       0.335   6.279  -4.856  0.00  0.00    +0.012 C 
ATOM     16  C   UNL     1       0.124   5.906  -9.070  0.00  0.00    +0.004 C 
ATOM     17  C   UNL     1       2.638   5.489 -10.494  0.00  0.00    +0.000 C 
ATOM     18  C   UNL     1       3.893   4.558  -8.701  0.00  0.00    +0.000 C 
ATOM     19  C   UNL     1       3.846   6.712  -7.365  0.00  0.00    +0.000 C 
ATOM     20  C   UNL     1       3.999   5.808 -10.958  0.00  0.00    +0.007 C 
ENDROOT
BRANCH   1  22
ATOM     21  C   UNL     1       6.311   5.734  -9.396  0.00  0.00    +0.072 C 
ATOM     22  C   UNL     1       5.887   5.669  -9.604  0.00  0.00    +0.151 C 
ATOM     23  O   UNL     1       6.486   5.389 -10.650  0.00  0.00    -0.296 OA
ENDBRANCH   1  22
TORSDOF 1
ENDMDL
MODEL 3
REMARK VINA RESULT:      -8.9      1.323      3.181
REMARK  Name = 
REMARK  1 active torsions:
REMARK  status: ('A' for Active; 'I' for Inactive)
REMARK    1  A    between atoms: C_2  and  C_4
REMARK                            x       y       z     vdW  Elec       q    Type
REMARK                         _______ _______ _______ _____ _____    ______ ____
ROOT
ATOM      1  C   UNL     1      -0.657   6.873  -5.648  0.00  0.00    +0.058 C 
ATOM      2  C   UNL     1       0.278   5.933  -6.584  0.00  0.00    +0.007 C 
ATOM      3  C   UNL     1       1.600   6.769  -6.166  0.00  0.00    +0.000 C 
ATOM      4  C   UNL     1       2.611   5.563  -6.773  0.00  0.00    +0.001 C 
ATOM      5  C   UNL     1       2.633   6.326  -8.278  0.00  0.00    +0.003 C 
ATOM      6  C   UNL     1       1.251   5.608  -8.736  0.00  0.00    +0.000 C 
ATOM      7  C   UNL     1       3.579   5.189  -8.943  0.00  0.00    +0.016 C 
ATOM      8  C   UNL     1       4.913   5.319  -8.315  0.00  0.00    -0.042 C 
ATOM      9  C   UNL     1       6.011   5.523  -9.038  0.00  0.00    +0.029 C 
ATOM     10  C   UNL     1       5.958   6.092 -10.391  0.00  0.00    +0.173 C 
ATOM     11  C   UNL     1       4.591   6.507 -10.836  0.00  0.00    +0.069 C 
ATOM     12  O   UNL     1       6.684   5.591 -11.303  0.00  0.00    -0.291 OA
ATOM     13  C   UNL     1       5.061   5.501  -6.841  0.00  0.00    +0.022 C 
ATOM     14  C   UNL     1       3.043   3.849  -8.601  0.00  0.00    +0.004 C 
ATOM     15  C   UNL     1       3.624   5.442 -10.414  0.00  0.00    +0.012 C 
ATOM     16  C   UNL     1       3.933   6.332  -6.284  0.00  0.00    +0.004 C 
ATOM     17  C   UNL     1       1.497   6.111  -4.692  0.00  0.00    +0.000 C 
ATOM     18  C   UNL     1       0.319   4.584  -6.084  0.00  0.00    +0.000 C 
ATOM     19  C   UNL     1       0.124   6.251  -7.984  0.00  0.00    +0.000 C 
ATOM     20  C   UNL     1       0.116   6.420  -4.281  0.00  0.00    +0.007 C 
ENDROOT
BRANCH   1  22
ATOM     21  C   UNL     1      -2.218   5.703  -5.606  0.00  0.00    +0.072 C 
ATOM     22  C   UNL     1      -1.766   5.715  -5.453  0.00  0.00    +0.151 C 
ATOM     23  O   UNL     1      -2.194   5.585  -4.299  0.00  0.00    -0.296 OA
ENDBRANCH   1  22
TORSDOF 1
ENDMDL
MODEL 4
REMARK VINA RESULT:      -8.5      2.934      4.616
REMARK  Name = 
REMARK  1 active torsions:
REMARK  status: ('A' for Active; 'I' for Inactive)
REMARK    1  A    between atoms: C_2  and  C_4
REMARK                            x       y       z     vdW  Elec       q    Type
REMARK                         _______ _______ _______ _____ _____    ______ ____
ROOT
ATOM      1  C   UNL     1       3.795   7.878  -2.931  0.00  0.00    +0.058 C 
ATOM      2  C   UNL     1       3.135   6.653  -3.766  0.00  0.00    +0.007 C 
ATOM      3  C   UNL     1       3.815   7.175  -5.139  0.00  0.00    +0.000 C 
ATOM      4  C   UNL     1       3.503   5.705  -5.907  0.00  0.00    +0.001 C 
ATOM      5  C   UNL     1       2.016   6.294  -6.447  0.00  0.00    +0.003 C 
ATOM      6  C   UNL     1       1.278   5.898  -5.057  0.00  0.00    +0.000 C 
ATOM      7  C   UNL     1       1.630   4.902  -7.184  0.00  0.00    +0.016 C 
ATOM      8  C   UNL     1       2.543   4.758  -8.339  0.00  0.00    -0.042 C 
ATOM      9  C   UNL     1       2.087   4.617  -9.580  0.00  0.00    +0.029 C 
ATOM     10  C   UNL     1       0.738   5.051  -9.969  0.00  0.00    +0.173 C 
ATOM     11  C   UNL     1      -0.025   5.746  -8.885  0.00  0.00    +0.069 C 
ATOM     12  O   UNL     1       0.037   4.304 -10.717  0.00  0.00    -0.291 OA
ATOM     13  C   UNL     1       4.004   5.036  -8.212  0.00  0.00    +0.022 C 
ATOM     14  C   UNL     1       1.887   3.773  -6.256  0.00  0.00    +0.004 C 
ATOM     15  C   UNL     1       0.200   4.995  -7.607  0.00  0.00    +0.012 C 
ATOM     16  C   UNL     1       4.255   6.168  -7.247  0.00  0.00    +0.004 C 
ATOM     17  C   UNL     1       5.249   6.704  -4.556  0.00  0.00    +0.000 C 
ATOM     18  C   UNL     1       3.679   5.389  -3.346  0.00  0.00    +0.000 C 
ATOM     19  C   UNL     1       1.726   6.866  -4.003  0.00  0.00    +0.000 C 
ATOM     20  C   UNL     1       5.319   7.380  -3.249  0.00  0.00    +0.007 C 
ENDROOT
BRANCH   1  22
ATOM     21  C   UNL     1       3.535   7.150  -1.140  0.00  0.00    +0.072 C 
ATOM     22  C   UNL     1       3.770   7.052  -1.543  0.00  0.00    +0.151 C 
ATOM     23  O   UNL     1       4.823   7.084  -0.893  0.00  0.00    -0.296 OA
ENDBRANCH   1  22
TORSDOF 1
ENDMDL
MODEL 5
REMARK VINA RESULT:      -8.5      2.968      4.689
REMARK  Name = 
REMARK  1 active torsions:
REMARK  status: ('A' for Active; 'I' for Inactive)
REMARK    1  A    between atoms: C_2  and  C_4
REMARK                            x       y       z     vdW  Elec       q    Type
REMARK                         _______ _______ _______ _____ _____    ______ ____
ROOT
ATOM      1  C   UNL     1       2.937   6.601  -5.337  0.00  0.00    +0.058 C 
ATOM      2  C   UNL     1       2.246   5.929  -6.643  0.00  0.00    +0.007 C 
ATOM      3  C   UNL     1       3.207   6.776  -7.633  0.00  0.00    +0.000 C 
ATOM      4  C   UNL     1       2.808   5.788  -8.941  0.00  0.00    +0.001 C 
ATOM      5  C   UNL     1       1.530   6.816  -9.339  0.00  0.00    +0.003 C 
ATOM      6  C   UNL     1       0.529   6.088  -8.289  0.00  0.00    +0.000 C 
ATOM      7  C   UNL     1       1.065   5.902 -10.595  0.00  0.00    +0.016 C 
ATOM      8  C   UNL     1       2.121   6.019 -11.626  0.00  0.00    -0.042 C 
ATOM      9  C   UNL     1       1.853   6.440 -12.858  0.00  0.00    +0.029 C 
ATOM     10  C   UNL     1       0.662   7.245 -13.166  0.00  0.00    +0.173 C 
ATOM     11  C   UNL     1      -0.154   7.625 -11.970  0.00  0.00    +0.069 C 
ATOM     12  O   UNL     1      -0.013   6.982 -14.207  0.00  0.00    -0.291 OA
ATOM     13  C   UNL     1       3.567   5.935 -11.267  0.00  0.00    +0.022 C 
ATOM     14  C   UNL     1       1.002   4.483 -10.166  0.00  0.00    +0.004 C 
ATOM     15  C   UNL     1      -0.249   6.426 -11.074  0.00  0.00    +0.012 C 
ATOM     16  C   UNL     1       3.825   6.556  -9.917  0.00  0.00    +0.004 C 
ATOM     17  C   UNL     1       4.444   5.850  -7.154  0.00  0.00    +0.000 C 
ATOM     18  C   UNL     1       2.524   4.519  -6.706  0.00  0.00    +0.000 C 
ATOM     19  C   UNL     1       0.940   6.488  -6.904  0.00  0.00    +0.000 C 
ATOM     20  C   UNL     1       4.403   5.965  -5.686  0.00  0.00    +0.007 C 
ENDROOT
BRANCH   1  22
ATOM     21  C   UNL     1       2.273   5.323  -4.021  0.00  0.00    +0.072 C 
ATOM     22  C   UNL     1       2.570   5.343  -4.394  0.00  0.00    +0.151 C 
ATOM     23  O   UNL     1       3.478   4.967  -3.642  0.00  0.00    -0.296 OA
ENDBRANCH   1  22
TORSDOF 1
ENDMDL
MODEL 6
REMARK VINA RESULT:      -8.5      2.867      6.502
REMARK  Name = 
REMARK  1 active torsions:
REMARK  status: ('A' for Active; 'I' for Inactive)
REMARK    1  A    between atoms: C_2  and  C_4
REMARK                            x       y       z     vdW  Elec       q    Type
REMARK                         _______ _______ _______ _____ _____    ______ ____
ROOT
ATOM      1  C   UNL     1       2.931   4.332  -8.753  0.00  0.00    +0.058 C 
ATOM      2  C   UNL     1       2.434   5.036  -7.378  0.00  0.00    +0.007 C 
ATOM      3  C   UNL     1       3.963   5.289  -6.911  0.00  0.00    +0.000 C 
ATOM      4  C   UNL     1       3.468   6.381  -5.723  0.00  0.00    +0.001 C 
ATOM      5  C   UNL     1       3.359   5.123  -4.602  0.00  0.00    +0.003 C 
ATOM      6  C   UNL     1       1.858   4.735  -5.084  0.00  0.00    +0.000 C 
ATOM      7  C   UNL     1       2.849   6.104  -3.416  0.00  0.00    +0.016 C 
ATOM      8  C   UNL     1       3.990   6.975  -3.057  0.00  0.00    -0.042 C 
ATOM      9  C   UNL     1       4.465   7.033  -1.816  0.00  0.00    +0.029 C 
ATOM     10  C   UNL     1       4.245   5.952  -0.846  0.00  0.00    +0.173 C 
ATOM     11  C   UNL     1       3.536   4.756  -1.401  0.00  0.00    +0.069 C 
ATOM     12  O   UNL     1       3.936   6.244   0.349  0.00  0.00    -0.291 OA
ATOM     13  C   UNL     1       4.835   7.617  -4.107  0.00  0.00    +0.022 C 
ATOM     14  C   UNL     1       1.761   6.969  -3.933  0.00  0.00    +0.004 C 
ATOM     15  C   UNL     1       2.418   5.245  -2.272  0.00  0.00    +0.012 C 
ATOM     16  C   UNL     1       4.982   6.716  -5.306  0.00  0.00    +0.004 C 
ATOM     17  C   UNL     1       4.083   6.414  -8.067  0.00  0.00    +0.000 C 
ATOM     18  C   UNL     1       1.746   6.271  -7.649  0.00  0.00    +0.000 C 
ATOM     19  C   UNL     1       1.960   4.063  -6.420  0.00  0.00    +0.000 C 
ATOM     20  C   UNL     1       3.661   5.696  -9.282  0.00  0.00    +0.007 C 
ENDROOT
BRANCH   1  22
ATOM     21  C   UNL     1       1.249   4.419  -9.738  0.00  0.00    +0.072 C 
ATOM     22  C   UNL     1       1.569   4.709  -9.534  0.00  0.00    +0.151 C 
ATOM     23  O   UNL     1       1.727   5.248 -10.637  0.00  0.00    -0.296 OA
ENDBRANCH   1  22
TORSDOF 1
ENDMDL
MODEL 7
REMARK VINA RESULT:      -8.4      2.781      5.941
REMARK  Name = 
REMARK  1 active torsions:
REMARK  status: ('A' for Active; 'I' for Inactive)
REMARK    1  A    between atoms: C_2  and  C_4
REMARK                            x       y       z     vdW  Elec       q    Type
REMARK                         _______ _______ _______ _____ _____    ______ ____
ROOT
ATOM      1  C   UNL     1       1.110   6.429  -9.055  0.00  0.00    +0.058 C 
ATOM      2  C   UNL     1       2.061   5.863  -7.867  0.00  0.00    +0.007 C 
ATOM      3  C   UNL     1       1.096   6.508  -6.738  0.00  0.00    +0.000 C 
ATOM      4  C   UNL     1       1.816   5.579  -5.527  0.00  0.00    +0.001 C 
ATOM      5  C   UNL     1       2.936   6.808  -5.238  0.00  0.00    +0.003 C 
ATOM      6  C   UNL     1       3.912   6.290  -6.426  0.00  0.00    +0.000 C 
ATOM      7  C   UNL     1       3.700   5.965  -4.084  0.00  0.00    +0.016 C 
ATOM      8  C   UNL     1       2.774   5.873  -2.933  0.00  0.00    -0.042 C 
ATOM      9  C   UNL     1       3.113   6.310  -1.724  0.00  0.00    +0.029 C 
ATOM     10  C   UNL     1       4.175   7.305  -1.524  0.00  0.00    +0.173 C 
ATOM     11  C   UNL     1       4.762   7.848  -2.790  0.00  0.00    +0.069 C 
ATOM     12  O   UNL     1       5.007   7.145  -0.580  0.00  0.00    -0.291 OA
ATOM     13  C   UNL     1       1.331   5.543  -3.124  0.00  0.00    +0.022 C 
ATOM     14  C   UNL     1       3.955   4.589  -4.575  0.00  0.00    +0.004 C 
ATOM     15  C   UNL     1       4.953   6.703  -3.739  0.00  0.00    +0.012 C 
ATOM     16  C   UNL     1       0.808   6.136  -4.408  0.00  0.00    +0.004 C 
ATOM     17  C   UNL     1      -0.011   5.388  -7.108  0.00  0.00    +0.000 C 
ATOM     18  C   UNL     1       2.040   4.425  -7.830  0.00  0.00    +0.000 C 
ATOM     19  C   UNL     1       3.273   6.639  -7.737  0.00  0.00    +0.000 C 
ATOM     20  C   UNL     1      -0.170   5.538  -8.565  0.00  0.00    +0.007 C 
ENDROOT
BRANCH   1  22
ATOM     21  C   UNL     1       1.786   5.319 -10.509  0.00  0.00    +0.072 C 
ATOM     22  C   UNL     1       1.572   5.275 -10.085  0.00  0.00    +0.151 C 
ATOM     23  O   UNL     1       0.649   4.678 -10.654  0.00  0.00    -0.296 OA
ENDBRANCH   1  22
TORSDOF 1
ENDMDL
MODEL 8
REMARK VINA RESULT:      -8.2      1.070      6.674
REMARK  Name = 
REMARK  1 active torsions:
REMARK  status: ('A' for Active; 'I' for Inactive)
REMARK    1  A    between atoms: C_2  and  C_4
REMARK                            x       y       z     vdW  Elec       q    Type
REMARK                         _______ _______ _______ _____ _____    ______ ____
ROOT
ATOM      1  C   UNL     1       2.151   4.610  -9.203  0.00  0.00    +0.058 C 
ATOM      2  C   UNL     1       1.302   5.550  -8.189  0.00  0.00    +0.007 C 
ATOM      3  C   UNL     1       1.733   4.637  -6.924  0.00  0.00    +0.000 C 
ATOM      4  C   UNL     1       1.229   5.825  -5.836  0.00  0.00    +0.001 C 
ATOM      5  C   UNL     1      -0.310   5.133  -5.781  0.00  0.00    +0.003 C 
ATOM      6  C   UNL     1      -0.789   5.932  -7.110  0.00  0.00    +0.000 C 
ATOM      7  C   UNL     1      -0.878   6.256  -4.760  0.00  0.00    +0.016 C 
ATOM      8  C   UNL     1      -0.202   6.038  -3.461  0.00  0.00    -0.042 C 
ATOM      9  C   UNL     1      -0.887   5.819  -2.342  0.00  0.00    +0.029 C 
ATOM     10  C   UNL     1      -2.268   5.317  -2.359  0.00  0.00    +0.173 C 
ATOM     11  C   UNL     1      -2.789   4.984  -3.722  0.00  0.00    +0.069 C 
ATOM     12  O   UNL     1      -3.123   5.827  -1.574  0.00  0.00    -0.291 OA
ATOM     13  C   UNL     1       1.266   5.780  -3.385  0.00  0.00    +0.022 C 
ATOM     14  C   UNL     1      -0.494   7.601  -5.253  0.00  0.00    +0.004 C 
ATOM     15  C   UNL     1      -2.357   6.071  -4.661  0.00  0.00    +0.012 C 
ATOM     16  C   UNL     1       1.734   4.975  -4.571  0.00  0.00    +0.004 C 
ATOM     17  C   UNL     1       3.232   5.229  -7.063  0.00  0.00    +0.000 C 
ATOM     18  C   UNL     1       1.868   6.870  -8.113  0.00  0.00    +0.000 C 
ATOM     19  C   UNL     1      -0.117   5.305  -8.295  0.00  0.00    +0.000 C 
ATOM     20  C   UNL     1       3.570   4.963  -8.472  0.00  0.00    +0.007 C 
ENDROOT
BRANCH   1  22
ATOM     21  C   UNL     1       2.192   5.840 -10.716  0.00  0.00    +0.072 C 
ATOM     22  C   UNL     1       2.356   5.805 -10.270  0.00  0.00    +0.151 C 
ATOM     23  O   UNL     1       3.503   5.916 -10.722  0.00  0.00    -0.296 OA
ENDBRANCH   1  22
TORSDOF 1
ENDMDL
MODEL 9
REMARK VINA RESULT:      -8.1      1.565      3.318
REMARK  Name = 
REMARK  1 active torsions:
REMARK  status: ('A' for Active; 'I' for Inactive)
REMARK    1  A    between atoms: C_2  and  C_4
REMARK                            x       y       z     vdW  Elec       q    Type
REMARK                         _______ _______ _______ _____ _____    ______ ____
ROOT
ATOM      1  C   UNL     1       0.757   6.753  -4.417  0.00  0.00    +0.058 C 
ATOM      2  C   UNL     1       1.117   5.827  -5.700  0.00  0.00    +0.007 C 
ATOM      3  C   UNL     1       2.522   6.601  -5.913  0.00  0.00    +0.000 C 
ATOM      4  C   UNL     1       3.086   5.391  -6.945  0.00  0.00    +0.001 C 
ATOM      5  C   UNL     1       2.455   6.220  -8.274  0.00  0.00    +0.003 C 
ATOM      6  C   UNL     1       0.984   5.567  -8.067  0.00  0.00    +0.000 C 
ATOM      7  C   UNL     1       2.938   5.084  -9.326  0.00  0.00    +0.016 C 
ATOM      8  C   UNL     1       4.416   5.143  -9.375  0.00  0.00    -0.042 C 
ATOM      9  C   UNL     1       5.072   5.345 -10.514  0.00  0.00    +0.029 C 
ATOM     10  C   UNL     1       4.436   5.974 -11.679  0.00  0.00    +0.173 C 
ATOM     11  C   UNL     1       3.038   6.452 -11.439  0.00  0.00    +0.069 C 
ATOM     12  O   UNL     1       4.641   5.492 -12.834  0.00  0.00    -0.291 OA
ATOM     13  C   UNL     1       5.229   5.256  -8.128  0.00  0.00    +0.022 C 
ATOM     14  C   UNL     1       2.553   3.748  -8.810  0.00  0.00    +0.004 C 
ATOM     15  C   UNL     1       2.320   5.400 -10.648  0.00  0.00    +0.012 C 
ATOM     16  C   UNL     1       4.521   6.097  -7.096  0.00  0.00    +0.004 C 
ATOM     17  C   UNL     1       3.071   5.882  -4.572  0.00  0.00    +0.000 C 
ATOM     18  C   UNL     1       1.316   4.456  -5.309  0.00  0.00    +0.000 C 
ATOM     19  C   UNL     1       0.356   6.211  -6.867  0.00  0.00    +0.000 C 
ATOM     20  C   UNL     1       2.047   6.216  -3.567  0.00  0.00    +0.007 C 
ENDROOT
BRANCH   1  22
ATOM     21  C   UNL     1      -0.663   5.642  -3.673  0.00  0.00    +0.072 C 
ATOM     22  C   UNL     1      -0.195   5.624  -3.766  0.00  0.00    +0.151 C 
ATOM     23  O   UNL     1      -0.003   5.403  -2.563  0.00  0.00    -0.296 OA
ENDBRANCH   1  22
TORSDOF 1
ENDMDL
