MODEL 1
REMARK VINA RESULT:      -2.7      0.000      0.000
REMARK  Name = 
REMARK  0 active torsions:
REMARK  status: ('A' for Active; 'I' for Inactive)
REMARK                            x       y       z     vdW  Elec       q    Type
REMARK                         _______ _______ _______ _____ _____    ______ ____
ROOT
ATOM      1  N   UNL     1       7.640   4.750 -12.972  0.00  0.00    -0.066 NA
ATOM      2  C   UNL     1       8.316   5.504 -11.984  0.00  0.00    +0.379 C 
ATOM      3  O   UNL     1       9.477   5.903 -12.250  0.00  0.00    -0.246 OA
ATOM      4  N   UNL     1       7.699   5.791 -10.727  0.00  0.00    -0.066 NA
ENDROOT
TORSDOF 0
ENDMDL
MODEL 2
REMARK VINA RESULT:      -2.6      0.489      1.744
REMARK  Name = 
REMARK  0 active torsions:
REMARK  status: ('A' for Active; 'I' for Inactive)
REMARK                            x       y       z     vdW  Elec       q    Type
REMARK                         _______ _______ _______ _____ _____    ______ ____
ROOT
ATOM      1  N   UNL     1       7.761   6.582 -11.154  0.00  0.00    -0.066 NA
ATOM      2  C   UNL     1       8.420   5.740 -12.081  0.00  0.00    +0.379 C 
ATOM      3  O   UNL     1       9.649   5.927 -12.265  0.00  0.00    -0.246 OA
ATOM      4  N   UNL     1       7.707   4.722 -12.786  0.00  0.00    -0.066 NA
ENDROOT
TORSDOF 0
ENDMDL
MODEL 3
REMARK VINA RESULT:      -2.5      1.987      2.441
REMARK  Name = 
REMARK  0 active torsions:
REMARK  status: ('A' for Active; 'I' for Inactive)
REMARK                            x       y       z     vdW  Elec       q    Type
REMARK                         _______ _______ _______ _____ _____    ______ ____
ROOT
ATOM      1  N   UNL     1       7.107   6.726 -12.492  0.00  0.00    -0.066 NA
ATOM      2  C   UNL     1       6.908   5.374 -12.859  0.00  0.00    +0.379 C 
ATOM      3  O   UNL     1       7.863   4.577 -12.684  0.00  0.00    -0.246 OA
ATOM      4  N   UNL     1       5.666   4.939 -13.415  0.00  0.00    -0.066 NA
ENDROOT
TORSDOF 0
ENDMDL
MODEL 4
REMARK VINA RESULT:      -2.4      2.154      2.434
REMARK  Name = 
REMARK  0 active torsions:
REMARK  status: ('A' for Active; 'I' for Inactive)
REMARK                            x       y       z     vdW  Elec       q    Type
REMARK                         _______ _______ _______ _____ _____    ______ ____
ROOT
ATOM      1  N   UNL     1       5.374   4.864 -13.219  0.00  0.00    -0.066 NA
ATOM      2  C   UNL     1       6.542   5.358 -12.592  0.00  0.00    +0.379 C 
ATOM      3  O   UNL     1       6.433   6.398 -11.896  0.00  0.00    -0.246 OA
ATOM      4  N   UNL     1       7.799   4.698 -12.754  0.00  0.00    -0.066 NA
ENDROOT
TORSDOF 0
ENDMDL
MODEL 5
REMARK VINA RESULT:      -2.4     14.201     14.368
REMARK  Name = 
REMARK  0 active torsions:
REMARK  status: ('A' for Active; 'I' for Inactive)
REMARK                            x       y       z     vdW  Elec       q    Type
REMARK                         _______ _______ _______ _____ _____    ______ ____
ROOT
ATOM      1  N   UNL     1      -2.341   6.927  -2.212  0.00  0.00    -0.066 NA
ATOM      2  C   UNL     1      -2.012   5.552  -2.150  0.00  0.00    +0.379 C 
ATOM      3  O   UNL     1      -2.844   4.734  -2.616  0.00  0.00    -0.246 OA
ATOM      4  N   UNL     1      -0.782   5.115  -1.570  0.00  0.00    -0.066 NA
ENDROOT
TORSDOF 0
ENDMDL
MODEL 6
REMARK VINA RESULT:      -2.4     13.343     13.606
REMARK  Name = 
REMARK  0 active torsions:
REMARK  status: ('A' for Active; 'I' for Inactive)
REMARK                            x       y       z     vdW  Elec       q    Type
REMARK                         _______ _______ _______ _____ _____    ______ ____
ROOT
ATOM      1  N   UNL     1      -0.510   5.100  -1.740  0.00  0.00    -0.066 NA
ATOM      2  C   UNL     1      -1.501   5.399  -2.705  0.00  0.00    +0.379 C 
ATOM      3  O   UNL     1      -1.193   6.194  -3.627  0.00  0.00    -0.246 OA
ATOM      4  N   UNL     1      -2.806   4.823  -2.623  0.00  0.00    -0.066 NA
ENDROOT
TORSDOF 0
ENDMDL
MODEL 7
REMARK VINA RESULT:      -2.4     21.076     21.369
REMARK  Name = 
REMARK  0 active torsions:
REMARK  status: ('A' for Active; 'I' for Inactive)
REMARK                            x       y       z     vdW  Elec       q    Type
REMARK                         _______ _______ _______ _____ _____    ______ ____
ROOT
ATOM      1  N   UNL     1      -3.985  -1.369   2.631  0.00  0.00    -0.066 NA
ATOM      2  C   UNL     1      -4.663  -2.581   2.906  0.00  0.00    +0.379 C 
ATOM      3  O   UNL     1      -4.126  -3.648   2.518  0.00  0.00    -0.246 OA
ATOM      4  N   UNL     1      -5.915  -2.583   3.594  0.00  0.00    -0.066 NA
ENDROOT
TORSDOF 0
ENDMDL
MODEL 8
REMARK VINA RESULT:      -2.3     21.207     21.433
REMARK  Name = 
REMARK  0 active torsions:
REMARK  status: ('A' for Active; 'I' for Inactive)
REMARK                            x       y       z     vdW  Elec       q    Type
REMARK                         _______ _______ _______ _____ _____    ______ ____
ROOT
ATOM      1  N   UNL     1      -3.906  -1.218   2.937  0.00  0.00    -0.066 NA
ATOM      2  C   UNL     1      -4.708  -2.381   3.024  0.00  0.00    +0.379 C 
ATOM      3  O   UNL     1      -5.874  -2.250   3.472  0.00  0.00    -0.246 OA
ATOM      4  N   UNL     1      -4.201  -3.656   2.625  0.00  0.00    -0.066 NA
ENDROOT
TORSDOF 0
ENDMDL
MODEL 9
REMARK VINA RESULT:      -2.0      7.802      8.228
REMARK  Name = 
REMARK  0 active torsions:
REMARK  status: ('A' for Active; 'I' for Inactive)
REMARK                            x       y       z     vdW  Elec       q    Type
REMARK                         _______ _______ _______ _____ _____    ______ ____
ROOT
ATOM      1  N   UNL     1       0.994   6.974  -6.390  0.00  0.00    -0.066 NA
ATOM      2  C   UNL     1       2.168   7.337  -7.091  0.00  0.00    +0.379 C 
ATOM      3  O   UNL     1       2.101   8.327  -7.862  0.00  0.00    -0.246 OA
ATOM      4  N   UNL     1       3.380   6.598  -6.930  0.00  0.00    -0.066 NA
ENDROOT
TORSDOF 0
ENDMDL
