MODEL 1
REMARK VINA RESULT:      -9.1      0.000      0.000
REMARK  Name = 
REMARK  8 active torsions:
REMARK  status: ('A' for Active; 'I' for Inactive)
REMARK    1  A    between atoms: C_2  and  N_4
REMARK    2  A    between atoms: C_5  and  C_6
REMARK    3  A    between atoms: C_7  and  C_8
REMARK    4  A    between atoms: C_8  and  C_10
REMARK    5  A    between atoms: C_10  and  C_11
REMARK    6  A    between atoms: C_11  and  C_13
REMARK    7  A    between atoms: C_13  and  C_14
REMARK    8  A    between atoms: C_17  and  C_18
REMARK                            x       y       z     vdW  Elec       q    Type
REMARK                         _______ _______ _______ _____ _____    ______ ____
ROOT
ATOM      1  N   UNL     1       2.179   5.927  -8.869  0.00  0.00    -0.329 N 
ATOM      2  C   UNL     1       3.403   5.864  -9.424  0.00  0.00    +0.060 A 
ATOM      3  C   UNL     1       4.285   5.877  -8.363  0.00  0.00    +0.017 A 
ATOM      4  C   UNL     1       5.646   5.775  -8.601  0.00  0.00    +0.001 A 
ATOM      5  C   UNL     1       6.094   5.514  -9.879  0.00  0.00    +0.000 A 
ATOM      6  C   UNL     1       5.171   5.449 -10.916  0.00  0.00    +0.001 A 
ATOM      7  C   UNL     1       3.575   5.679  -7.190  0.00  0.00    +0.017 A 
ATOM      8  C   UNL     1       3.840   5.703 -10.720  0.00  0.00    +0.017 A 
ATOM      9  C   UNL     1       2.260   5.537  -7.576  0.00  0.00    +0.060 A 
ENDROOT
BRANCH   7  10
ATOM     10  C   UNL     1       4.015   5.940  -5.826  0.00  0.00    +0.002 A 
ATOM     11  C   UNL     1       4.479   4.967  -4.971  0.00  0.00    +0.002 A 
ATOM     12  C   UNL     1       4.414   5.195  -3.607  0.00  0.00    +0.030 A 
ATOM     13  C   UNL     1       4.501   6.491  -3.131  0.00  0.00    +0.140 A 
ATOM     14  F   UNL     1       5.160   6.808  -2.002  0.00  0.00    -0.204 F 
ATOM     15  C   UNL     1       4.243   7.497  -4.036  0.00  0.00    +0.030 A 
ATOM     16  C   UNL     1       3.946   7.230  -5.339  0.00  0.00    +0.002 A 
ENDBRANCH   7  10
BRANCH   1  18
ATOM     17  C   UNL     1       1.086   6.650  -9.887  0.00  0.00    +0.024 C 
ATOM     18  C   UNL     1       1.007   6.359  -9.612  0.00  0.00    +0.086 C 
ATOM     19  C   UNL     1       0.299   5.207 -10.295  0.00  0.00    +0.024 C 
ENDBRANCH   1  18
BRANCH   9  20
ATOM     20  C   UNL     1       1.150   5.024  -6.795  0.00  0.00    +0.015 C 
ATOM     21  C   UNL     1       0.886   5.340  -5.540  0.00  0.00    +0.008 C 
BRANCH  21  22
ATOM     22  C   UNL     1      -0.726   5.416  -5.227  0.00  0.00    +0.177 C 
ATOM     23  O   UNL     1      -1.050   5.446  -6.733  0.00  0.00    -0.218 OA
BRANCH  22  24
ATOM     24  C   UNL     1      -0.688   7.085  -5.127  0.00  0.00    +0.071 C 
BRANCH  24  25
ATOM     25  C   UNL     1      -2.238   7.325  -4.560  0.00  0.00    +0.166 C 
ATOM     26  O   UNL     1      -1.986   8.830  -4.388  0.00  0.00    -0.222 OA
BRANCH  25  27
ATOM     27  C   UNL     1      -1.786   7.026  -2.985  0.00  0.00    +0.147 C 
BRANCH  27  28
ATOM     28  C   UNL     1      -2.900   6.141  -2.533  0.00  0.00    +0.367 C 
ATOM     29  O   UNL     1      -2.762   4.805  -2.239  0.00  0.00    -0.246 OA
ATOM     30  O   UNL     1      -4.047   6.639  -2.412  0.00  0.00    -0.246 OA
ENDBRANCH  27  28
ENDBRANCH  25  27
ENDBRANCH  24  25
ENDBRANCH  22  24
ENDBRANCH  21  22
ENDBRANCH   9  20
TORSDOF 8
ENDMDL
MODEL 2
REMARK VINA RESULT:      -9.1      2.943      4.992
REMARK  Name = 
REMARK  8 active torsions:
REMARK  status: ('A' for Active; 'I' for Inactive)
REMARK    1  A    between atoms: C_2  and  N_4
REMARK    2  A    between atoms: C_5  and  C_6
REMARK    3  A    between atoms: C_7  and  C_8
REMARK    4  A    between atoms: C_8  and  C_10
REMARK    5  A    between atoms: C_10  and  C_11
REMARK    6  A    between atoms: C_11  and  C_13
REMARK    7  A    between atoms: C_13  and  C_14
REMARK    8  A    between atoms: C_17  and  C_18
REMARK                            x       y       z     vdW  Elec       q    Type
REMARK                         _______ _______ _______ _____ _____    ______ ____
ROOT
ATOM      1  N   UNL     1       2.846   5.262  -8.573  0.00  0.00    -0.329 N 
ATOM      2  C   UNL     1       2.113   5.659  -9.628  0.00  0.00    +0.060 A 
ATOM      3  C   UNL     1       0.873   5.974  -9.112  0.00  0.00    +0.017 A 
ATOM      4  C   UNL     1      -0.113   6.469  -9.950  0.00  0.00    +0.001 A 
ATOM      5  C   UNL     1       0.199   6.778 -11.257  0.00  0.00    +0.000 A 
ATOM      6  C   UNL     1       1.477   6.502 -11.728  0.00  0.00    +0.001 A 
ATOM      7  C   UNL     1       0.962   6.016  -7.730  0.00  0.00    +0.017 A 
ATOM      8  C   UNL     1       2.413   5.869 -10.956  0.00  0.00    +0.017 A 
ATOM      9  C   UNL     1       2.278   5.731  -7.438  0.00  0.00    +0.060 A 
ENDROOT
BRANCH   7  10
ATOM     10  C   UNL     1      -0.128   5.980  -6.764  0.00  0.00    +0.002 A 
ATOM     11  C   UNL     1      -1.217   5.145  -6.868  0.00  0.00    +0.002 A 
ATOM     12  C   UNL     1      -2.388   5.496  -6.219  0.00  0.00    +0.030 A 
ATOM     13  C   UNL     1      -2.321   6.238  -5.053  0.00  0.00    +0.140 A 
ATOM     14  F   UNL     1      -3.146   6.030  -4.012  0.00  0.00    -0.204 F 
ATOM     15  C   UNL     1      -1.146   6.920  -4.825  0.00  0.00    +0.030 A 
ATOM     16  C   UNL     1      -0.094   6.844  -5.689  0.00  0.00    +0.002 A 
ENDBRANCH   7  10
BRANCH   1  18
ATOM     17  C   UNL     1       4.028   4.189  -9.027  0.00  0.00    +0.024 C 
ATOM     18  C   UNL     1       4.045   4.454  -8.716  0.00  0.00    +0.086 C 
ATOM     19  C   UNL     1       5.297   5.296  -8.852  0.00  0.00    +0.024 C 
ENDBRANCH   1  18
BRANCH   9  20
ATOM     20  C   UNL     1       2.978   5.930  -6.183  0.00  0.00    +0.015 C 
ATOM     21  C   UNL     1       3.719   6.979  -5.876  0.00  0.00    +0.008 C 
BRANCH  21  22
ATOM     22  C   UNL     1       3.604   7.398  -4.291  0.00  0.00    +0.177 C 
ATOM     23  O   UNL     1       5.030   7.980  -4.308  0.00  0.00    -0.218 OA
BRANCH  22  24
ATOM     24  C   UNL     1       4.144   5.895  -3.793  0.00  0.00    +0.071 C 
BRANCH  24  25
ATOM     25  C   UNL     1       3.564   5.939  -2.230  0.00  0.00    +0.166 C 
ATOM     26  O   UNL     1       3.782   4.427  -2.064  0.00  0.00    -0.222 OA
BRANCH  25  27
ATOM     27  C   UNL     1       1.993   5.701  -2.730  0.00  0.00    +0.147 C 
BRANCH  27  28
ATOM     28  C   UNL     1       1.332   5.362  -1.435  0.00  0.00    +0.367 C 
ATOM     29  O   UNL     1       1.627   5.960  -0.231  0.00  0.00    -0.246 OA
ATOM     30  O   UNL     1       0.447   4.471  -1.431  0.00  0.00    -0.246 OA
ENDBRANCH  27  28
ENDBRANCH  25  27
ENDBRANCH  24  25
ENDBRANCH  22  24
ENDBRANCH  21  22
ENDBRANCH   9  20
TORSDOF 8
ENDMDL
MODEL 3
REMARK VINA RESULT:      -9.0      4.303      8.550
REMARK  Name = 
REMARK  8 active torsions:
REMARK  status: ('A' for Active; 'I' for Inactive)
REMARK    1  A    between atoms: C_2  and  N_4
REMARK    2  A    between atoms: C_5  and  C_6
REMARK    3  A    between atoms: C_7  and  C_8
REMARK    4  A    between atoms: C_8  and  C_10
REMARK    5  A    between atoms: C_10  and  C_11
REMARK    6  A    between atoms: C_11  and  C_13
REMARK    7  A    between atoms: C_13  and  C_14
REMARK    8  A    between atoms: C_17  and  C_18
REMARK                            x       y       z     vdW  Elec       q    Type
REMARK                         _______ _______ _______ _____ _____    ______ ____
ROOT
ATOM      1  N   UNL     1       1.695   5.742  -6.267  0.00  0.00    -0.329 N 
ATOM      2  C   UNL     1       0.390   5.766  -5.943  0.00  0.00    +0.060 A 
ATOM      3  C   UNL     1      -0.285   5.716  -7.146  0.00  0.00    +0.017 A 
ATOM      4  C   UNL     1      -1.669   5.678  -7.155  0.00  0.00    +0.001 A 
ATOM      5  C   UNL     1      -2.352   5.543  -5.965  0.00  0.00    +0.000 A 
ATOM      6  C   UNL     1      -1.637   5.537  -4.774  0.00  0.00    +0.001 A 
ATOM      7  C   UNL     1       0.616   5.396  -8.149  0.00  0.00    +0.017 A 
ATOM      8  C   UNL     1      -0.282   5.731  -4.741  0.00  0.00    +0.017 A 
ATOM      9  C   UNL     1       1.831   5.246  -7.517  0.00  0.00    +0.060 A 
ENDROOT
BRANCH   7  10
ATOM     10  C   UNL     1       0.442   5.553  -9.587  0.00  0.00    +0.002 A 
ATOM     11  C   UNL     1       0.124   4.520 -10.438  0.00  0.00    +0.002 A 
ATOM     12  C   UNL     1       0.446   4.640 -11.779  0.00  0.00    +0.030 A 
ATOM     13  C   UNL     1       0.477   5.896 -12.359  0.00  0.00    +0.140 A 
ATOM     14  F   UNL     1       0.047   6.128 -13.612  0.00  0.00    -0.204 F 
ATOM     15  C   UNL     1       0.584   6.968 -11.500  0.00  0.00    +0.030 A 
ATOM     16  C   UNL     1       0.628   6.800 -10.148  0.00  0.00    +0.002 A 
ENDBRANCH   7  10
BRANCH   1  18
ATOM     17  C   UNL     1       2.615   6.509  -5.118  0.00  0.00    +0.024 C 
ATOM     18  C   UNL     1       2.732   6.199  -5.357  0.00  0.00    +0.086 C 
ATOM     19  C   UNL     1       3.274   5.080  -4.490  0.00  0.00    +0.024 C 
ENDBRANCH   1  18
BRANCH   9  20
ATOM     20  C   UNL     1       3.038   4.633  -8.038  0.00  0.00    +0.015 C 
ATOM     21  C   UNL     1       3.686   5.017  -9.124  0.00  0.00    +0.008 C 
BRANCH  21  22
ATOM     22  C   UNL     1       5.315   4.856  -8.985  0.00  0.00    +0.177 C 
ATOM     23  O   UNL     1       5.321   5.696  -7.694  0.00  0.00    -0.218 OA
BRANCH  22  24
ATOM     24  C   UNL     1       5.590   6.197  -9.946  0.00  0.00    +0.071 C 
BRANCH  24  25
ATOM     25  C   UNL     1       7.129   5.811 -10.460  0.00  0.00    +0.166 C 
ATOM     26  O   UNL     1       7.694   7.114  -9.874  0.00  0.00    -0.222 OA
BRANCH  25  27
ATOM     27  C   UNL     1       6.893   6.531 -11.943  0.00  0.00    +0.147 C 
BRANCH  27  28
ATOM     28  C   UNL     1       6.738   5.332 -12.819  0.00  0.00    +0.367 C 
ATOM     29  O   UNL     1       5.550   4.927 -13.381  0.00  0.00    -0.246 OA
ATOM     30  O   UNL     1       7.754   4.636 -13.064  0.00  0.00    -0.246 OA
ENDBRANCH  27  28
ENDBRANCH  25  27
ENDBRANCH  24  25
ENDBRANCH  22  24
ENDBRANCH  21  22
ENDBRANCH   9  20
TORSDOF 8
ENDMDL
MODEL 4
REMARK VINA RESULT:      -8.9      3.876      8.053
REMARK  Name = 
REMARK  8 active torsions:
REMARK  status: ('A' for Active; 'I' for Inactive)
REMARK    1  A    between atoms: C_2  and  N_4
REMARK    2  A    between atoms: C_5  and  C_6
REMARK    3  A    between atoms: C_7  and  C_8
REMARK    4  A    between atoms: C_8  and  C_10
REMARK    5  A    between atoms: C_10  and  C_11
REMARK    6  A    between atoms: C_11  and  C_13
REMARK    7  A    between atoms: C_13  and  C_14
REMARK    8  A    between atoms: C_17  and  C_18
REMARK                            x       y       z     vdW  Elec       q    Type
REMARK                         _______ _______ _______ _____ _____    ______ ____
ROOT
ATOM      1  N   UNL     1       3.559   6.973  -4.120  0.00  0.00    -0.329 N 
ATOM      2  C   UNL     1       3.153   6.355  -2.996  0.00  0.00    +0.060 A 
ATOM      3  C   UNL     1       1.842   5.994  -3.233  0.00  0.00    +0.017 A 
ATOM      4  C   UNL     1       1.141   5.287  -2.270  0.00  0.00    +0.001 A 
ATOM      5  C   UNL     1       1.802   4.825  -1.151  0.00  0.00    +0.000 A 
ATOM      6  C   UNL     1       3.140   5.157  -0.974  0.00  0.00    +0.001 A 
ATOM      7  C   UNL     1       1.569   6.162  -4.581  0.00  0.00    +0.017 A 
ATOM      8  C   UNL     1       3.802   5.986  -1.838  0.00  0.00    +0.017 A 
ATOM      9  C   UNL     1       2.744   6.617  -5.139  0.00  0.00    +0.060 A 
ENDROOT
BRANCH   7  10
ATOM     10  C   UNL     1       0.264   6.228  -5.225  0.00  0.00    +0.002 A 
ATOM     11  C   UNL     1      -0.671   7.203  -4.965  0.00  0.00    +0.002 A 
ATOM     12  C   UNL     1      -2.003   6.934  -5.229  0.00  0.00    +0.030 A 
ATOM     13  C   UNL     1      -2.328   6.061  -6.252  0.00  0.00    +0.140 A 
ATOM     14  F   UNL     1      -3.384   6.253  -7.063  0.00  0.00    -0.204 F 
ATOM     15  C   UNL     1      -1.330   5.211  -6.676  0.00  0.00    +0.030 A 
ATOM     16  C   UNL     1      -0.080   5.248  -6.134  0.00  0.00    +0.002 A 
ENDBRANCH   7  10
BRANCH   1  18
ATOM     17  C   UNL     1       4.722   8.119  -3.826  0.00  0.00    +0.024 C 
ATOM     18  C   UNL     1       4.703   7.868  -4.148  0.00  0.00    +0.086 C 
ATOM     19  C   UNL     1       6.017   7.124  -4.273  0.00  0.00    +0.024 C 
ENDBRANCH   1  18
BRANCH   9  20
ATOM     20  C   UNL     1       3.101   6.674  -6.544  0.00  0.00    +0.015 C 
ATOM     21  C   UNL     1       3.713   5.717  -7.219  0.00  0.00    +0.008 C 
BRANCH  21  22
ATOM     22  C   UNL     1       3.194   5.603  -8.774  0.00  0.00    +0.177 C 
ATOM     23  O   UNL     1       2.719   4.156  -8.544  0.00  0.00    -0.218 OA
BRANCH  22  24
ATOM     24  C   UNL     1       4.701   5.102  -9.302  0.00  0.00    +0.071 C 
BRANCH  24  25
ATOM     25  C   UNL     1       5.042   6.391 -10.303  0.00  0.00    +0.166 C 
ATOM     26  O   UNL     1       3.564   6.528 -10.698  0.00  0.00    -0.222 OA
BRANCH  25  27
ATOM     27  C   UNL     1       5.341   5.395 -11.604  0.00  0.00    +0.147 C 
BRANCH  27  28
ATOM     28  C   UNL     1       6.829   5.477 -11.689  0.00  0.00    +0.367 C 
ATOM     29  O   UNL     1       7.602   6.357 -10.967  0.00  0.00    -0.246 OA
ATOM     30  O   UNL     1       7.427   4.698 -12.471  0.00  0.00    -0.246 OA
ENDBRANCH  27  28
ENDBRANCH  25  27
ENDBRANCH  24  25
ENDBRANCH  22  24
ENDBRANCH  21  22
ENDBRANCH   9  20
TORSDOF 8
ENDMDL
MODEL 5
REMARK VINA RESULT:      -8.8      4.118      7.412
REMARK  Name = 
REMARK  8 active torsions:
REMARK  status: ('A' for Active; 'I' for Inactive)
REMARK    1  A    between atoms: C_2  and  N_4
REMARK    2  A    between atoms: C_5  and  C_6
REMARK    3  A    between atoms: C_7  and  C_8
REMARK    4  A    between atoms: C_8  and  C_10
REMARK    5  A    between atoms: C_10  and  C_11
REMARK    6  A    between atoms: C_11  and  C_13
REMARK    7  A    between atoms: C_13  and  C_14
REMARK    8  A    between atoms: C_17  and  C_18
REMARK                            x       y       z     vdW  Elec       q    Type
REMARK                         _______ _______ _______ _____ _____    ______ ____
ROOT
ATOM      1  N   UNL     1       0.690   5.543  -8.580  0.00  0.00    -0.329 N 
ATOM      2  C   UNL     1      -0.186   5.497  -7.560  0.00  0.00    +0.060 A 
ATOM      3  C   UNL     1       0.564   5.735  -6.426  0.00  0.00    +0.017 A 
ATOM      4  C   UNL     1      -0.062   5.801  -5.192  0.00  0.00    +0.001 A 
ATOM      5  C   UNL     1      -1.440   5.774  -5.127  0.00  0.00    +0.000 A 
ATOM      6  C   UNL     1      -2.166   5.592  -6.298  0.00  0.00    +0.001 A 
ATOM      7  C   UNL     1       1.819   6.181  -6.806  0.00  0.00    +0.017 A 
ATOM      8  C   UNL     1      -1.556   5.369  -7.502  0.00  0.00    +0.017 A 
ATOM      9  C   UNL     1       1.796   6.214  -8.183  0.00  0.00    +0.060 A 
ENDROOT
BRANCH   7  10
ATOM     10  C   UNL     1       3.028   6.239  -5.995  0.00  0.00    +0.002 A 
ATOM     11  C   UNL     1       3.884   5.177  -5.817  0.00  0.00    +0.002 A 
ATOM     12  C   UNL     1       4.698   5.159  -4.698  0.00  0.00    +0.030 A 
ATOM     13  C   UNL     1       5.119   6.356  -4.147  0.00  0.00    +0.140 A 
ATOM     14  F   UNL     1       6.353   6.527  -3.639  0.00  0.00    -0.204 F 
ATOM     15  C   UNL     1       4.394   7.477  -4.485  0.00  0.00    +0.030 A 
ATOM     16  C   UNL     1       3.334   7.415  -5.340  0.00  0.00    +0.002 A 
ENDBRANCH   7  10
BRANCH   1  18
ATOM     17  C   UNL     1       0.148   4.630  -9.855  0.00  0.00    +0.024 C 
ATOM     18  C   UNL     1       0.415   4.939  -9.873  0.00  0.00    +0.086 C 
ATOM     19  C   UNL     1      -0.067   5.951 -10.892  0.00  0.00    +0.024 C 
ENDBRANCH   1  18
BRANCH   9  20
ATOM     20  C   UNL     1       2.729   6.874  -9.076  0.00  0.00    +0.015 C 
ATOM     21  C   UNL     1       3.896   6.387  -9.462  0.00  0.00    +0.008 C 
BRANCH  21  22
ATOM     22  C   UNL     1       4.269   6.780 -11.013  0.00  0.00    +0.177 C 
ATOM     23  O   UNL     1       4.716   5.335 -11.306  0.00  0.00    -0.218 OA
BRANCH  22  24
ATOM     24  C   UNL     1       5.816   7.250 -10.584  0.00  0.00    +0.071 C 
BRANCH  24  25
ATOM     25  C   UNL     1       6.575   5.777 -10.776  0.00  0.00    +0.166 C 
ATOM     26  O   UNL     1       7.340   5.953  -9.456  0.00  0.00    -0.222 OA
BRANCH  25  27
ATOM     27  C   UNL     1       7.827   6.453 -11.641  0.00  0.00    +0.147 C 
BRANCH  27  28
ATOM     28  C   UNL     1       7.572   5.887 -12.999  0.00  0.00    +0.367 C 
ATOM     29  O   UNL     1       7.166   6.626 -14.086  0.00  0.00    -0.246 OA
ATOM     30  O   UNL     1       7.732   4.653 -13.172  0.00  0.00    -0.246 OA
ENDBRANCH  27  28
ENDBRANCH  25  27
ENDBRANCH  24  25
ENDBRANCH  22  24
ENDBRANCH  21  22
ENDBRANCH   9  20
TORSDOF 8
ENDMDL
MODEL 6
REMARK VINA RESULT:      -8.5      3.622      7.320
REMARK  Name = 
REMARK  8 active torsions:
REMARK  status: ('A' for Active; 'I' for Inactive)
REMARK    1  A    between atoms: C_2  and  N_4
REMARK    2  A    between atoms: C_5  and  C_6
REMARK    3  A    between atoms: C_7  and  C_8
REMARK    4  A    between atoms: C_8  and  C_10
REMARK    5  A    between atoms: C_10  and  C_11
REMARK    6  A    between atoms: C_11  and  C_13
REMARK    7  A    between atoms: C_13  and  C_14
REMARK    8  A    between atoms: C_17  and  C_18
REMARK                            x       y       z     vdW  Elec       q    Type
REMARK                         _______ _______ _______ _____ _____    ______ ____
ROOT
ATOM      1  N   UNL     1       3.394   7.034  -3.748  0.00  0.00    -0.329 N 
ATOM      2  C   UNL     1       2.979   6.263  -2.728  0.00  0.00    +0.060 A 
ATOM      3  C   UNL     1       1.680   5.915  -3.040  0.00  0.00    +0.017 A 
ATOM      4  C   UNL     1       0.975   5.071  -2.197  0.00  0.00    +0.001 A 
ATOM      5  C   UNL     1       1.624   4.473  -1.137  0.00  0.00    +0.000 A 
ATOM      6  C   UNL     1       2.951   4.802  -0.887  0.00  0.00    +0.001 A 
ATOM      7  C   UNL     1       1.430   6.259  -4.358  0.00  0.00    +0.017 A 
ATOM      8  C   UNL     1       3.613   5.752  -1.616  0.00  0.00    +0.017 A 
ATOM      9  C   UNL     1       2.606   6.806  -4.824  0.00  0.00    +0.060 A 
ENDROOT
BRANCH   7  10
ATOM     10  C   UNL     1       0.137   6.389  -5.016  0.00  0.00    +0.002 A 
ATOM     11  C   UNL     1      -0.673   7.494  -4.903  0.00  0.00    +0.002 A 
ATOM     12  C   UNL     1      -2.030   7.351  -5.138  0.00  0.00    +0.030 A 
ATOM     13  C   UNL     1      -2.465   6.388  -6.031  0.00  0.00    +0.140 A 
ATOM     14  F   UNL     1      -3.497   6.589  -6.870  0.00  0.00    -0.204 F 
ATOM     15  C   UNL     1      -1.579   5.375  -6.323  0.00  0.00    +0.030 A 
ATOM     16  C   UNL     1      -0.328   5.339  -5.782  0.00  0.00    +0.002 A 
ENDBRANCH   7  10
BRANCH   1  18
ATOM     17  C   UNL     1       4.567   8.099  -3.254  0.00  0.00    +0.024 C 
ATOM     18  C   UNL     1       4.520   7.945  -3.630  0.00  0.00    +0.086 C 
ATOM     19  C   UNL     1       5.824   7.314  -4.075  0.00  0.00    +0.024 C 
ENDBRANCH   1  18
BRANCH   9  20
ATOM     20  C   UNL     1       2.989   7.060  -6.200  0.00  0.00    +0.015 C 
ATOM     21  C   UNL     1       2.984   6.167  -7.174  0.00  0.00    +0.008 C 
BRANCH  21  22
ATOM     22  C   UNL     1       2.553   6.809  -8.624  0.00  0.00    +0.177 C 
ATOM     23  O   UNL     1       1.788   7.950  -7.929  0.00  0.00    -0.218 OA
BRANCH  22  24
ATOM     24  C   UNL     1       1.187   5.847  -8.710  0.00  0.00    +0.071 C 
BRANCH  24  25
ATOM     25  C   UNL     1       1.390   5.284 -10.267  0.00  0.00    +0.166 C 
ATOM     26  O   UNL     1       2.834   5.806 -10.311  0.00  0.00    -0.222 OA
BRANCH  25  27
ATOM     27  C   UNL     1       0.813   6.697 -10.931  0.00  0.00    +0.147 C 
BRANCH  27  28
ATOM     28  C   UNL     1       0.531   6.259 -12.330  0.00  0.00    +0.367 C 
ATOM     29  O   UNL     1       0.577   4.954 -12.761  0.00  0.00    -0.246 OA
ATOM     30  O   UNL     1       0.235   7.134 -13.182  0.00  0.00    -0.246 OA
ENDBRANCH  27  28
ENDBRANCH  25  27
ENDBRANCH  24  25
ENDBRANCH  22  24
ENDBRANCH  21  22
ENDBRANCH   9  20
TORSDOF 8
ENDMDL
MODEL 7
REMARK VINA RESULT:      -8.2      2.204      3.634
REMARK  Name = 
REMARK  8 active torsions:
REMARK  status: ('A' for Active; 'I' for Inactive)
REMARK    1  A    between atoms: C_2  and  N_4
REMARK    2  A    between atoms: C_5  and  C_6
REMARK    3  A    between atoms: C_7  and  C_8
REMARK    4  A    between atoms: C_8  and  C_10
REMARK    5  A    between atoms: C_10  and  C_11
REMARK    6  A    between atoms: C_11  and  C_13
REMARK    7  A    between atoms: C_13  and  C_14
REMARK    8  A    between atoms: C_17  and  C_18
REMARK                            x       y       z     vdW  Elec       q    Type
REMARK                         _______ _______ _______ _____ _____    ______ ____
ROOT
ATOM      1  N   UNL     1      -0.185   5.867  -6.057  0.00  0.00    -0.329 N 
ATOM      2  C   UNL     1       0.234   5.718  -7.326  0.00  0.00    +0.060 A 
ATOM      3  C   UNL     1       1.611   5.797  -7.265  0.00  0.00    +0.017 A 
ATOM      4  C   UNL     1       2.359   5.633  -8.420  0.00  0.00    +0.001 A 
ATOM      5  C   UNL     1       1.732   5.248  -9.586  0.00  0.00    +0.000 A 
ATOM      6  C   UNL     1       0.348   5.120  -9.596  0.00  0.00    +0.001 A 
ATOM      7  C   UNL     1       2.004   5.724  -5.939  0.00  0.00    +0.017 A 
ATOM      8  C   UNL     1      -0.417   5.431  -8.505  0.00  0.00    +0.017 A 
ATOM      9  C   UNL     1       0.838   5.590  -5.217  0.00  0.00    +0.060 A 
ENDROOT
BRANCH   7  10
ATOM     10  C   UNL     1       3.294   6.090  -5.370  0.00  0.00    +0.002 A 
ATOM     11  C   UNL     1       4.288   5.185  -5.079  0.00  0.00    +0.002 A 
ATOM     12  C   UNL     1       5.241   5.524  -4.133  0.00  0.00    +0.030 A 
ATOM     13  C   UNL     1       5.584   6.853  -3.963  0.00  0.00    +0.140 A 
ATOM     14  F   UNL     1       6.844   7.252  -3.716  0.00  0.00    -0.204 F 
ATOM     15  C   UNL     1       4.689   7.785  -4.442  0.00  0.00    +0.030 A 
ATOM     16  C   UNL     1       3.540   7.416  -5.076  0.00  0.00    +0.002 A 
ENDBRANCH   7  10
BRANCH   1  18
ATOM     17  C   UNL     1      -1.740   5.998  -5.492  0.00  0.00    +0.024 C 
ATOM     18  C   UNL     1      -1.543   6.268  -5.727  0.00  0.00    +0.086 C 
ATOM     19  C   UNL     1      -1.599   7.632  -5.070  0.00  0.00    +0.024 C 
ENDBRANCH   1  18
BRANCH   9  20
ATOM     20  C   UNL     1       0.687   5.181  -3.834  0.00  0.00    +0.015 C 
ATOM     21  C   UNL     1       1.548   5.427  -2.863  0.00  0.00    +0.008 C 
BRANCH  21  22
ATOM     22  C   UNL     1       0.818   5.711  -1.419  0.00  0.00    +0.177 C 
ATOM     23  O   UNL     1       0.396   4.235  -1.305  0.00  0.00    -0.218 OA
BRANCH  22  24
ATOM     24  C   UNL     1      -0.618   6.141  -2.162  0.00  0.00    +0.071 C 
BRANCH  24  25
ATOM     25  C   UNL     1      -1.666   5.630  -0.969  0.00  0.00    +0.166 C 
ATOM     26  O   UNL     1      -2.639   5.060  -2.012  0.00  0.00    -0.222 OA
BRANCH  25  27
ATOM     27  C   UNL     1      -2.471   7.088  -0.952  0.00  0.00    +0.147 C 
BRANCH  27  28
ATOM     28  C   UNL     1      -1.889   7.720   0.268  0.00  0.00    +0.367 C 
ATOM     29  O   UNL     1      -1.300   8.963   0.295  0.00  0.00    -0.246 OA
ATOM     30  O   UNL     1      -1.930   7.082   1.349  0.00  0.00    -0.246 OA
ENDBRANCH  27  28
ENDBRANCH  25  27
ENDBRANCH  24  25
ENDBRANCH  22  24
ENDBRANCH  21  22
ENDBRANCH   9  20
TORSDOF 8
ENDMDL
MODEL 8
REMARK VINA RESULT:      -8.1      2.797      4.741
REMARK  Name = 
REMARK  8 active torsions:
REMARK  status: ('A' for Active; 'I' for Inactive)
REMARK    1  A    between atoms: C_2  and  N_4
REMARK    2  A    between atoms: C_5  and  C_6
REMARK    3  A    between atoms: C_7  and  C_8
REMARK    4  A    between atoms: C_8  and  C_10
REMARK    5  A    between atoms: C_10  and  C_11
REMARK    6  A    between atoms: C_11  and  C_13
REMARK    7  A    between atoms: C_13  and  C_14
REMARK    8  A    between atoms: C_17  and  C_18
REMARK                            x       y       z     vdW  Elec       q    Type
REMARK                         _______ _______ _______ _____ _____    ______ ____
ROOT
ATOM      1  N   UNL     1       1.466   6.156 -10.735  0.00  0.00    -0.329 N 
ATOM      2  C   UNL     1       1.724   5.728 -11.983  0.00  0.00    +0.060 A 
ATOM      3  C   UNL     1       3.096   5.803 -12.117  0.00  0.00    +0.017 A 
ATOM      4  C   UNL     1       3.695   5.381 -13.293  0.00  0.00    +0.001 A 
ATOM      5  C   UNL     1       2.932   4.756 -14.257  0.00  0.00    +0.000 A 
ATOM      6  C   UNL     1       1.560   4.643 -14.062  0.00  0.00    +0.001 A 
ATOM      7  C   UNL     1       3.655   6.020 -10.868  0.00  0.00    +0.017 A 
ATOM      8  C   UNL     1       0.934   5.195 -12.978  0.00  0.00    +0.017 A 
ATOM      9  C   UNL     1       2.592   6.060  -9.992  0.00  0.00    +0.060 A 
ENDROOT
BRANCH   7  10
ATOM     10  C   UNL     1       5.000   6.488 -10.562  0.00  0.00    +0.002 A 
ATOM     11  C   UNL     1       5.493   7.711 -10.954  0.00  0.00    +0.002 A 
ATOM     12  C   UNL     1       6.865   7.875 -11.052  0.00  0.00    +0.030 A 
ATOM     13  C   UNL     1       7.696   7.139 -10.226  0.00  0.00    +0.140 A 
ATOM     14  F   UNL     1       8.818   7.646  -9.687  0.00  0.00    -0.204 F 
ATOM     15  C   UNL     1       7.150   6.013  -9.650  0.00  0.00    +0.030 A 
ATOM     16  C   UNL     1       5.850   5.659  -9.860  0.00  0.00    +0.002 A 
ENDBRANCH   7  10
BRANCH   1  18
ATOM     17  C   UNL     1      -0.074   6.769 -10.642  0.00  0.00    +0.024 C 
ATOM     18  C   UNL     1       0.154   6.635 -10.331  0.00  0.00    +0.086 C 
ATOM     19  C   UNL     1      -0.628   5.593  -9.557  0.00  0.00    +0.024 C 
ENDBRANCH   1  18
BRANCH   9  20
ATOM     20  C   UNL     1       2.624   5.968  -8.545  0.00  0.00    +0.015 C 
ATOM     21  C   UNL     1       3.331   6.744  -7.743  0.00  0.00    +0.008 C 
BRANCH  21  22
ATOM     22  C   UNL     1       2.560   7.068  -6.328  0.00  0.00    +0.177 C 
ATOM     23  O   UNL     1       3.491   6.109  -5.563  0.00  0.00    -0.218 OA
BRANCH  22  24
ATOM     24  C   UNL     1       1.427   5.868  -6.601  0.00  0.00    +0.071 C 
BRANCH  24  25
ATOM     25  C   UNL     1       1.755   4.923  -5.267  0.00  0.00    +0.166 C 
ATOM     26  O   UNL     1       1.244   3.663  -5.983  0.00  0.00    -0.222 OA
BRANCH  25  27
ATOM     27  C   UNL     1       0.254   5.207  -4.606  0.00  0.00    +0.147 C 
BRANCH  27  28
ATOM     28  C   UNL     1       0.615   5.457  -3.179  0.00  0.00    +0.367 C 
ATOM     29  O   UNL     1       0.106   4.752  -2.113  0.00  0.00    -0.246 OA
ATOM     30  O   UNL     1       1.435   6.372  -2.921  0.00  0.00    -0.246 OA
ENDBRANCH  27  28
ENDBRANCH  25  27
ENDBRANCH  24  25
ENDBRANCH  22  24
ENDBRANCH  21  22
ENDBRANCH   9  20
TORSDOF 8
ENDMDL
MODEL 9
REMARK VINA RESULT:      -8.1      3.175      5.244
REMARK  Name = 
REMARK  8 active torsions:
REMARK  status: ('A' for Active; 'I' for Inactive)
REMARK    1  A    between atoms: C_2  and  N_4
REMARK    2  A    between atoms: C_5  and  C_6
REMARK    3  A    between atoms: C_7  and  C_8
REMARK    4  A    between atoms: C_8  and  C_10
REMARK    5  A    between atoms: C_10  and  C_11
REMARK    6  A    between atoms: C_11  and  C_13
REMARK    7  A    between atoms: C_13  and  C_14
REMARK    8  A    between atoms: C_17  and  C_18
REMARK                            x       y       z     vdW  Elec       q    Type
REMARK                         _______ _______ _______ _____ _____    ______ ____
ROOT
ATOM      1  N   UNL     1       1.313   6.045 -10.964  0.00  0.00    -0.329 N 
ATOM      2  C   UNL     1       1.636   5.586 -12.186  0.00  0.00    +0.060 A 
ATOM      3  C   UNL     1       3.012   5.671 -12.255  0.00  0.00    +0.017 A 
ATOM      4  C   UNL     1       3.670   5.224 -13.389  0.00  0.00    +0.001 A 
ATOM      5  C   UNL     1       2.960   4.568 -14.372  0.00  0.00    +0.000 A 
ATOM      6  C   UNL     1       1.582   4.447 -14.242  0.00  0.00    +0.001 A 
ATOM      7  C   UNL     1       3.507   5.926 -10.987  0.00  0.00    +0.017 A 
ATOM      8  C   UNL     1       0.899   5.021 -13.204  0.00  0.00    +0.017 A 
ATOM      9  C   UNL     1       2.402   5.978 -10.165  0.00  0.00    +0.060 A 
ENDROOT
BRANCH   7  10
ATOM     10  C   UNL     1       4.832   6.414 -10.628  0.00  0.00    +0.002 A 
ATOM     11  C   UNL     1       5.341   7.623 -11.044  0.00  0.00    +0.002 A 
ATOM     12  C   UNL     1       6.716   7.790 -11.075  0.00  0.00    +0.030 A 
ATOM     13  C   UNL     1       7.503   7.094 -10.174  0.00  0.00    +0.140 A 
ATOM     14  F   UNL     1       8.593   7.630  -9.597  0.00  0.00    -0.204 F 
ATOM     15  C   UNL     1       6.930   5.990  -9.581  0.00  0.00    +0.030 A 
ATOM     16  C   UNL     1       5.646   5.620  -9.847  0.00  0.00    +0.002 A 
ENDBRANCH   7  10
BRANCH   1  18
ATOM     17  C   UNL     1      -0.057   6.650 -10.250  0.00  0.00    +0.024 C 
ATOM     18  C   UNL     1      -0.020   6.521 -10.636  0.00  0.00    +0.086 C 
ATOM     19  C   UNL     1      -0.490   7.615 -11.572  0.00  0.00    +0.024 C 
ENDBRANCH   1  18
BRANCH   9  20
ATOM     20  C   UNL     1       2.365   5.923  -8.716  0.00  0.00    +0.015 C 
ATOM     21  C   UNL     1       2.198   4.829  -7.994  0.00  0.00    +0.008 C 
BRANCH  21  22
ATOM     22  C   UNL     1       3.060   4.850  -6.596  0.00  0.00    +0.177 C 
ATOM     23  O   UNL     1       2.058   3.893  -5.924  0.00  0.00    -0.218 OA
BRANCH  22  24
ATOM     24  C   UNL     1       2.248   6.205  -6.045  0.00  0.00    +0.071 C 
BRANCH  24  25
ATOM     25  C   UNL     1       2.433   5.945  -4.408  0.00  0.00    +0.166 C 
ATOM     26  O   UNL     1       1.159   6.745  -4.096  0.00  0.00    -0.222 OA
BRANCH  25  27
ATOM     27  C   UNL     1       3.381   7.301  -4.225  0.00  0.00    +0.147 C 
BRANCH  27  28
ATOM     28  C   UNL     1       4.524   6.746  -3.442  0.00  0.00    +0.367 C 
ATOM     29  O   UNL     1       5.005   7.292  -2.275  0.00  0.00    -0.246 OA
ATOM     30  O   UNL     1       5.093   5.711  -3.868  0.00  0.00    -0.246 OA
ENDBRANCH  27  28
ENDBRANCH  25  27
ENDBRANCH  24  25
ENDBRANCH  22  24
ENDBRANCH  21  22
ENDBRANCH   9  20
TORSDOF 8
ENDMDL
