MODEL 1
REMARK VINA RESULT:      -8.3      0.000      0.000
REMARK  Name = 
REMARK  3 active torsions:
REMARK  status: ('A' for Active; 'I' for Inactive)
REMARK    1  A    between atoms: C_2  and  C_3
REMARK    2  A    between atoms: C_9  and  C_11
REMARK    3  A    between atoms: C_11  and  C_13
REMARK                            x       y       z     vdW  Elec       q    Type
REMARK                         _______ _______ _______ _____ _____    ______ ____
ROOT
ATOM      1  C   UNL     1       3.815   6.685  -9.607  0.00  0.00    +0.168 C 
ATOM      2  N   UNL     1       4.386   6.209  -8.217  0.00  0.00    -0.123 NA
ENDROOT
BRANCH   1   3
ATOM      3  C   UNL     1       5.175   6.304 -10.450  0.00  0.00    +0.027 C 
ATOM      4  C   UNL     1       6.186   5.805  -9.649  0.00  0.00    +0.002 C 
ATOM      5  C   UNL     1       7.630   5.717 -10.413  0.00  0.00    +0.002 C 
ATOM      6  C   UNL     1       7.176   5.027 -11.822  0.00  0.00    +0.030 C 
ATOM      7  C   UNL     1       6.016   5.617 -12.429  0.00  0.00    +0.127 C 
ATOM      8  C   UNL     1       6.484   6.844 -12.903  0.00  0.00    +0.030 C 
ATOM      9  C   UNL     1       6.703   7.975 -11.748  0.00  0.00    +0.002 C 
ATOM     10  O   UNL     1       5.725   4.834 -13.538  0.00  0.00    -0.226 OA
ATOM     11  C   UNL     1       7.797   7.244 -10.854  0.00  0.00    +0.000 C 
ATOM     12  C   UNL     1       4.704   5.533 -11.660  0.00  0.00    +0.032 C 
ATOM     13  C   UNL     1       5.410   7.664 -10.813  0.00  0.00    +0.002 C 
ENDBRANCH   1   3
BRANCH   1  16
ATOM     14  C   UNL     1       0.302   5.694  -9.279  0.00  0.00    +0.167 C 
ATOM     15  N   UNL     1       1.681   5.900  -9.965  0.00  0.00    -0.269 N 
ATOM     16  C   UNL     1       2.940   5.351  -9.878  0.00  0.00    +0.244 C 
ATOM     17  O   UNL     1       3.073   4.360  -9.166  0.00  0.00    -0.273 OA
ATOM     18  C   UNL     1       1.064   6.683 -11.172  0.00  0.00    +0.076 C 
ATOM     19  C   UNL     1      -0.193   5.580 -11.515  0.00  0.00    +0.023 C 
ATOM     20  C   UNL     1       1.319   5.425 -12.307  0.00  0.00    +0.022 C 
ATOM     21  C   UNL     1       0.143   4.475 -10.362  0.00  0.00    +0.037 C 
BRANCH  14  23
ATOM     22  N   UNL     1       0.670   4.999  -6.963  0.00  0.00    -0.194 NA
ATOM     23  C   UNL     1       0.809   4.746  -8.090  0.00  0.00    +0.093 C 
ENDBRANCH  14  23
ENDBRANCH   1  16
TORSDOF 3
ENDMDL
MODEL 2
REMARK VINA RESULT:      -8.1      5.206      9.034
REMARK  Name = 
REMARK  3 active torsions:
REMARK  status: ('A' for Active; 'I' for Inactive)
REMARK    1  A    between atoms: C_2  and  C_3
REMARK    2  A    between atoms: C_9  and  C_11
REMARK    3  A    between atoms: C_11  and  C_13
REMARK                            x       y       z     vdW  Elec       q    Type
REMARK                         _______ _______ _______ _____ _____    ______ ____
ROOT
ATOM      1  C   UNL     1       1.008   6.911  -5.389  0.00  0.00    +0.168 C 
ATOM      2  N   UNL     1       0.976   6.578  -6.930  0.00  0.00    -0.123 NA
ENDROOT
BRANCH   1   3
ATOM      3  C   UNL     1      -0.528   6.393  -5.107  0.00  0.00    +0.027 C 
ATOM      4  C   UNL     1      -1.109   5.797  -6.211  0.00  0.00    +0.002 C 
ATOM      5  C   UNL     1      -2.719   5.562  -6.043  0.00  0.00    +0.002 C 
ATOM      6  C   UNL     1      -2.769   4.918  -4.542  0.00  0.00    +0.030 C 
ATOM      7  C   UNL     1      -1.985   5.621  -3.566  0.00  0.00    +0.127 C 
ATOM      8  C   UNL     1      -2.711   6.794  -3.347  0.00  0.00    +0.030 C 
ATOM      9  C   UNL     1      -2.582   7.899  -4.540  0.00  0.00    +0.002 C 
ATOM     10  O   UNL     1      -2.063   4.869  -2.402  0.00  0.00    -0.226 OA
ATOM     11  C   UNL     1      -3.184   7.064  -5.753  0.00  0.00    +0.000 C 
ATOM     12  C   UNL     1      -0.478   5.671  -3.781  0.00  0.00    +0.032 C 
ATOM     13  C   UNL     1      -1.009   7.722  -4.908  0.00  0.00    +0.002 C 
ENDBRANCH   1   3
BRANCH   1  16
ATOM     14  C   UNL     1       4.512   6.033  -4.771  0.00  0.00    +0.167 C 
ATOM     15  N   UNL     1       2.989   6.156  -4.491  0.00  0.00    -0.269 N 
ATOM     16  C   UNL     1       1.829   5.584  -4.962  0.00  0.00    +0.244 C 
ATOM     17  O   UNL     1       1.944   4.641  -5.740  0.00  0.00    -0.273 OA
ATOM     18  C   UNL     1       3.208   6.869  -3.114  0.00  0.00    +0.076 C 
ATOM     19  C   UNL     1       4.366   5.777  -2.497  0.00  0.00    +0.023 C 
ATOM     20  C   UNL     1       2.700   5.529  -2.174  0.00  0.00    +0.022 C 
ATOM     21  C   UNL     1       4.414   4.746  -3.762  0.00  0.00    +0.037 C 
BRANCH  14  23
ATOM     22  N   UNL     1       4.770   5.524  -7.149  0.00  0.00    -0.194 NA
ATOM     23  C   UNL     1       4.400   5.158  -6.108  0.00  0.00    +0.093 C 
ENDBRANCH  14  23
ENDBRANCH   1  16
TORSDOF 3
ENDMDL
MODEL 3
REMARK VINA RESULT:      -8.0      4.202      6.373
REMARK  Name = 
REMARK  3 active torsions:
REMARK  status: ('A' for Active; 'I' for Inactive)
REMARK    1  A    between atoms: C_2  and  C_3
REMARK    2  A    between atoms: C_9  and  C_11
REMARK    3  A    between atoms: C_11  and  C_13
REMARK                            x       y       z     vdW  Elec       q    Type
REMARK                         _______ _______ _______ _____ _____    ______ ____
ROOT
ATOM      1  C   UNL     1       2.721   4.537  -5.536  0.00  0.00    +0.168 C 
ATOM      2  N   UNL     1       1.207   4.145  -5.730  0.00  0.00    -0.123 NA
ENDROOT
BRANCH   1   3
ATOM      3  C   UNL     1       2.840   5.333  -6.971  0.00  0.00    +0.027 C 
ATOM      4  C   UNL     1       2.157   6.534  -6.981  0.00  0.00    +0.002 C 
ATOM      5  C   UNL     1       2.008   7.179  -8.478  0.00  0.00    +0.002 C 
ATOM      6  C   UNL     1       3.537   7.008  -9.026  0.00  0.00    +0.030 C 
ATOM      7  C   UNL     1       4.113   5.713  -8.796  0.00  0.00    +0.127 C 
ATOM      8  C   UNL     1       3.441   4.891  -9.703  0.00  0.00    +0.030 C 
ATOM      9  C   UNL     1       1.915   4.512  -9.269  0.00  0.00    +0.002 C 
ATOM     10  O   UNL     1       5.431   5.800  -9.222  0.00  0.00    -0.226 OA
ATOM     11  C   UNL     1       1.274   5.968  -9.221  0.00  0.00    +0.000 C 
ATOM     12  C   UNL     1       4.301   5.277  -7.349  0.00  0.00    +0.032 C 
ATOM     13  C   UNL     1       2.128   4.313  -7.670  0.00  0.00    +0.002 C 
ENDBRANCH   1   3
BRANCH   1  16
ATOM     14  C   UNL     1       3.736   5.564  -2.166  0.00  0.00    +0.167 C 
ATOM     15  N   UNL     1       3.507   5.682  -3.699  0.00  0.00    -0.269 N 
ATOM     16  C   UNL     1       2.431   5.788  -4.551  0.00  0.00    +0.244 C 
ATOM     17  O   UNL     1       1.324   5.940  -4.042  0.00  0.00    -0.273 OA
ATOM     18  C   UNL     1       4.988   6.104  -3.979  0.00  0.00    +0.076 C 
ATOM     19  C   UNL     1       5.092   7.310  -2.775  0.00  0.00    +0.023 C 
ATOM     20  C   UNL     1       4.606   7.729  -4.365  0.00  0.00    +0.022 C 
ATOM     21  C   UNL     1       3.570   7.194  -2.195  0.00  0.00    +0.037 C 
BRANCH  14  23
ATOM     22  N   UNL     1       1.895   4.801  -0.748  0.00  0.00    -0.194 NA
ATOM     23  C   UNL     1       2.211   5.286  -1.757  0.00  0.00    +0.093 C 
ENDBRANCH  14  23
ENDBRANCH   1  16
TORSDOF 3
ENDMDL
MODEL 4
REMARK VINA RESULT:      -7.9      3.625      5.679
REMARK  Name = 
REMARK  3 active torsions:
REMARK  status: ('A' for Active; 'I' for Inactive)
REMARK    1  A    between atoms: C_2  and  C_3
REMARK    2  A    between atoms: C_9  and  C_11
REMARK    3  A    between atoms: C_11  and  C_13
REMARK                            x       y       z     vdW  Elec       q    Type
REMARK                         _______ _______ _______ _____ _____    ______ ____
ROOT
ATOM      1  C   UNL     1       1.510   6.823  -5.764  0.00  0.00    +0.168 C 
ATOM      2  N   UNL     1       2.758   6.293  -4.961  0.00  0.00    -0.123 NA
ENDROOT
BRANCH   1   3
ATOM      3  C   UNL     1       1.933   6.089  -7.174  0.00  0.00    +0.027 C 
ATOM      4  C   UNL     1       2.926   5.141  -7.012  0.00  0.00    +0.002 C 
ATOM      5  C   UNL     1       3.568   4.632  -8.429  0.00  0.00    +0.002 C 
ATOM      6  C   UNL     1       2.207   4.371  -9.293  0.00  0.00    +0.030 C 
ATOM      7  C   UNL     1       1.241   5.431  -9.219  0.00  0.00    +0.127 C 
ATOM      8  C   UNL     1       1.815   6.450  -9.981  0.00  0.00    +0.030 C 
ATOM      9  C   UNL     1       3.035   7.240  -9.240  0.00  0.00    +0.002 C 
ATOM     10  O   UNL     1       0.127   4.980  -9.913  0.00  0.00    -0.226 OA
ATOM     11  C   UNL     1       4.051   6.034  -9.026  0.00  0.00    +0.000 C 
ATOM     12  C   UNL     1       0.633   5.731  -7.855  0.00  0.00    +0.032 C 
ATOM     13  C   UNL     1       2.443   7.301  -7.728  0.00  0.00    +0.002 C 
ENDBRANCH   1   3
BRANCH   1  16
ATOM     14  C   UNL     1      -0.741   6.552  -2.884  0.00  0.00    +0.167 C 
ATOM     15  N   UNL     1      -0.301   6.525  -4.374  0.00  0.00    -0.269 N 
ATOM     16  C   UNL     1       0.475   5.725  -5.181  0.00  0.00    +0.244 C 
ATOM     17  O   UNL     1       0.885   4.672  -4.700  0.00  0.00    -0.273 OA
ATOM     18  C   UNL     1      -1.431   7.515  -4.818  0.00  0.00    +0.076 C 
ATOM     19  C   UNL     1      -2.721   6.726  -4.027  0.00  0.00    +0.023 C 
ATOM     20  C   UNL     1      -2.344   6.329  -5.652  0.00  0.00    +0.022 C 
ATOM     21  C   UNL     1      -1.879   5.484  -3.385  0.00  0.00    +0.037 C 
BRANCH  14  23
ATOM     22  N   UNL     1       0.042   4.729  -1.452  0.00  0.00    -0.194 NA
ATOM     23  C   UNL     1       0.270   5.425  -2.357  0.00  0.00    +0.093 C 
ENDBRANCH  14  23
ENDBRANCH   1  16
TORSDOF 3
ENDMDL
MODEL 5
REMARK VINA RESULT:      -7.8      2.338      6.137
REMARK  Name = 
REMARK  3 active torsions:
REMARK  status: ('A' for Active; 'I' for Inactive)
REMARK    1  A    between atoms: C_2  and  C_3
REMARK    2  A    between atoms: C_9  and  C_11
REMARK    3  A    between atoms: C_11  and  C_13
REMARK                            x       y       z     vdW  Elec       q    Type
REMARK                         _______ _______ _______ _____ _____    ______ ____
ROOT
ATOM      1  C   UNL     1       3.947   6.553 -11.650  0.00  0.00    +0.168 C 
ATOM      2  N   UNL     1       2.862   5.767 -12.481  0.00  0.00    -0.123 NA
ENDROOT
BRANCH   1   3
ATOM      3  C   UNL     1       3.412   6.020 -10.189  0.00  0.00    +0.027 C 
ATOM      4  C   UNL     1       3.928   4.786  -9.841  0.00  0.00    +0.002 C 
ATOM      5  C   UNL     1       3.174   4.111  -8.555  0.00  0.00    +0.002 C 
ATOM      6  C   UNL     1       3.130   5.387  -7.536  0.00  0.00    +0.030 C 
ATOM      7  C   UNL     1       2.685   6.614  -8.136  0.00  0.00    +0.127 C 
ATOM      8  C   UNL     1       1.317   6.409  -8.323  0.00  0.00    +0.030 C 
ATOM      9  C   UNL     1       0.946   5.430  -9.573  0.00  0.00    +0.002 C 
ATOM     10  O   UNL     1       2.824   7.588  -7.157  0.00  0.00    -0.226 OA
ATOM     11  C   UNL     1       1.671   4.095  -9.100  0.00  0.00    +0.000 C 
ATOM     12  C   UNL     1       3.541   7.198  -9.252  0.00  0.00    +0.032 C 
ATOM     13  C   UNL     1       2.064   5.921 -10.645  0.00  0.00    +0.002 C 
ENDBRANCH   1   3
BRANCH   1  16
ATOM     14  C   UNL     1       7.350   6.648 -13.011  0.00  0.00    +0.167 C 
ATOM     15  N   UNL     1       6.214   6.345 -11.994  0.00  0.00    -0.269 N 
ATOM     16  C   UNL     1       5.139   5.490 -11.911  0.00  0.00    +0.244 C 
ATOM     17  O   UNL     1       5.034   4.633 -12.785  0.00  0.00    -0.273 OA
ATOM     18  C   UNL     1       6.959   7.056 -10.814  0.00  0.00    +0.076 C 
ATOM     19  C   UNL     1       8.475   6.306 -11.043  0.00  0.00    +0.023 C 
ATOM     20  C   UNL     1       7.327   5.606  -9.979  0.00  0.00    +0.022 C 
ATOM     21  C   UNL     1       8.080   5.359 -12.312  0.00  0.00    +0.037 C 
BRANCH  14  23
ATOM     22  N   UNL     1       6.677   6.219 -15.324  0.00  0.00    -0.194 NA
ATOM     23  C   UNL     1       6.750   5.808 -14.237  0.00  0.00    +0.093 C 
ENDBRANCH  14  23
ENDBRANCH   1  16
TORSDOF 3
ENDMDL
MODEL 6
REMARK VINA RESULT:      -7.7      1.967      3.393
REMARK  Name = 
REMARK  3 active torsions:
REMARK  status: ('A' for Active; 'I' for Inactive)
REMARK    1  A    between atoms: C_2  and  C_3
REMARK    2  A    between atoms: C_9  and  C_11
REMARK    3  A    between atoms: C_11  and  C_13
REMARK                            x       y       z     vdW  Elec       q    Type
REMARK                         _______ _______ _______ _____ _____    ______ ____
ROOT
ATOM      1  C   UNL     1       3.529   5.188 -10.093  0.00  0.00    +0.168 C 
ATOM      2  N   UNL     1       2.770   5.777 -11.343  0.00  0.00    -0.123 NA
ENDROOT
BRANCH   1   3
ATOM      3  C   UNL     1       4.967   5.896 -10.462  0.00  0.00    +0.027 C 
ATOM      4  C   UNL     1       4.881   7.273 -10.565  0.00  0.00    +0.002 C 
ATOM      5  C   UNL     1       6.213   7.954 -11.228  0.00  0.00    +0.002 C 
ATOM      6  C   UNL     1       7.386   7.185 -10.390  0.00  0.00    +0.030 C 
ATOM      7  C   UNL     1       7.214   5.763 -10.290  0.00  0.00    +0.127 C 
ATOM      8  C   UNL     1       7.503   5.308 -11.578  0.00  0.00    +0.030 C 
ATOM      9  C   UNL     1       6.321   5.576 -12.669  0.00  0.00    +0.002 C 
ATOM     10  O   UNL     1       8.231   5.314  -9.459  0.00  0.00    -0.226 OA
ATOM     11  C   UNL     1       6.257   7.165 -12.618  0.00  0.00    +0.000 C 
ATOM     12  C   UNL     1       5.984   5.257  -9.547  0.00  0.00    +0.032 C 
ATOM     13  C   UNL     1       5.021   5.272 -11.744  0.00  0.00    +0.002 C 
ENDBRANCH   1   3
BRANCH   1  16
ATOM     14  C   UNL     1       1.551   5.108  -7.008  0.00  0.00    +0.167 C 
ATOM     15  N   UNL     1       2.737   5.460  -7.948  0.00  0.00    -0.269 N 
ATOM     16  C   UNL     1       2.951   6.272  -9.039  0.00  0.00    +0.244 C 
ATOM     17  O   UNL     1       2.043   7.034  -9.359  0.00  0.00    -0.273 OA
ATOM     18  C   UNL     1       3.809   4.900  -6.953  0.00  0.00    +0.076 C 
ATOM     19  C   UNL     1       3.227   5.690  -5.556  0.00  0.00    +0.023 C 
ATOM     20  C   UNL     1       4.427   6.440  -6.524  0.00  0.00    +0.022 C 
ATOM     21  C   UNL     1       1.980   6.490  -6.240  0.00  0.00    +0.037 C 
BRANCH  14  23
ATOM     22  N   UNL     1      -0.717   5.455  -7.856  0.00  0.00    -0.194 NA
ATOM     23  C   UNL     1       0.395   5.798  -7.878  0.00  0.00    +0.093 C 
ENDBRANCH  14  23
ENDBRANCH   1  16
TORSDOF 3
ENDMDL
MODEL 7
REMARK VINA RESULT:      -7.7      2.738      5.213
REMARK  Name = 
REMARK  3 active torsions:
REMARK  status: ('A' for Active; 'I' for Inactive)
REMARK    1  A    between atoms: C_2  and  C_3
REMARK    2  A    between atoms: C_9  and  C_11
REMARK    3  A    between atoms: C_11  and  C_13
REMARK                            x       y       z     vdW  Elec       q    Type
REMARK                         _______ _______ _______ _____ _____    ______ ____
ROOT
ATOM      1  C   UNL     1       3.752   4.920  -9.680  0.00  0.00    +0.168 C 
ATOM      2  N   UNL     1       5.191   5.509  -9.419  0.00  0.00    -0.123 NA
ENDROOT
BRANCH   1   3
ATOM      3  C   UNL     1       3.141   5.406  -8.233  0.00  0.00    +0.027 C 
ATOM      4  C   UNL     1       2.754   6.734  -8.228  0.00  0.00    +0.002 C 
ATOM      5  C   UNL     1       2.440   7.308  -6.729  0.00  0.00    +0.002 C 
ATOM      6  C   UNL     1       1.515   6.098  -6.137  0.00  0.00    +0.030 C 
ATOM      7  C   UNL     1       2.039   4.781  -6.365  0.00  0.00    +0.127 C 
ATOM      8  C   UNL     1       3.123   4.704  -5.489  0.00  0.00    +0.030 C 
ATOM      9  C   UNL     1       4.443   5.530  -5.974  0.00  0.00    +0.002 C 
ATOM     10  O   UNL     1       1.072   3.901  -5.899  0.00  0.00    -0.226 OA
ATOM     11  C   UNL     1       3.841   7.002  -6.023  0.00  0.00    +0.000 C 
ATOM     12  C   UNL     1       2.177   4.323  -7.812  0.00  0.00    +0.032 C 
ATOM     13  C   UNL     1       4.390   5.218  -7.568  0.00  0.00    +0.002 C 
ENDBRANCH   1   3
BRANCH   1  16
ATOM     14  C   UNL     1       2.034   5.283 -12.898  0.00  0.00    +0.167 C 
ATOM     15  N   UNL     1       2.314   5.495 -11.384  0.00  0.00    -0.269 N 
ATOM     16  C   UNL     1       3.254   6.143 -10.615  0.00  0.00    +0.244 C 
ATOM     17  O   UNL     1       4.065   6.855 -11.201  0.00  0.00    -0.273 OA
ATOM     18  C   UNL     1       0.864   5.078 -10.966  0.00  0.00    +0.076 C 
ATOM     19  C   UNL     1       0.034   6.059 -12.089  0.00  0.00    +0.023 C 
ATOM     20  C   UNL     1       0.380   6.661 -10.521  0.00  0.00    +0.022 C 
ATOM     21  C   UNL     1       1.330   6.759 -12.793  0.00  0.00    +0.037 C 
BRANCH  14  23
ATOM     22  N   UNL     1       3.679   5.975 -14.571  0.00  0.00    -0.194 NA
ATOM     23  C   UNL     1       3.433   5.846 -13.441  0.00  0.00    +0.093 C 
ENDBRANCH  14  23
ENDBRANCH   1  16
TORSDOF 3
ENDMDL
MODEL 8
REMARK VINA RESULT:      -7.6      5.041      8.874
REMARK  Name = 
REMARK  3 active torsions:
REMARK  status: ('A' for Active; 'I' for Inactive)
REMARK    1  A    between atoms: C_2  and  C_3
REMARK    2  A    between atoms: C_9  and  C_11
REMARK    3  A    between atoms: C_11  and  C_13
REMARK                            x       y       z     vdW  Elec       q    Type
REMARK                         _______ _______ _______ _____ _____    ______ ____
ROOT
ATOM      1  C   UNL     1       1.046   5.330  -3.646  0.00  0.00    +0.168 C 
ATOM      2  N   UNL     1       1.038   5.822  -2.148  0.00  0.00    -0.123 NA
ENDROOT
BRANCH   1   3
ATOM      3  C   UNL     1      -0.424   5.974  -4.008  0.00  0.00    +0.027 C 
ATOM      4  C   UNL     1      -0.440   7.355  -3.944  0.00  0.00    +0.002 C 
ATOM      5  C   UNL     1      -1.949   7.985  -3.995  0.00  0.00    +0.002 C 
ATOM      6  C   UNL     1      -2.583   7.134  -5.237  0.00  0.00    +0.030 C 
ATOM      7  C   UNL     1      -2.338   5.720  -5.178  0.00  0.00    +0.127 C 
ATOM      8  C   UNL     1      -3.169   5.288  -4.143  0.00  0.00    +0.030 C 
ATOM      9  C   UNL     1      -2.627   5.647  -2.647  0.00  0.00    +0.002 C 
ATOM     10  O   UNL     1      -2.847   5.196  -6.358  0.00  0.00    -0.226 OA
ATOM     11  C   UNL     1      -2.597   7.235  -2.741  0.00  0.00    +0.000 C 
ATOM     12  C   UNL     1      -0.889   5.257  -5.254  0.00  0.00    +0.032 C 
ATOM     13  C   UNL     1      -1.037   5.384  -2.862  0.00  0.00    +0.002 C 
ENDBRANCH   1   3
BRANCH   1  16
ATOM     14  C   UNL     1       4.289   5.559  -5.339  0.00  0.00    +0.167 C 
ATOM     15  N   UNL     1       2.776   5.808  -5.089  0.00  0.00    -0.269 N 
ATOM     16  C   UNL     1       2.006   6.513  -4.191  0.00  0.00    +0.244 C 
ATOM     17  O   UNL     1       2.594   7.253  -3.407  0.00  0.00    -0.273 OA
ATOM     18  C   UNL     1       2.367   5.330  -6.523  0.00  0.00    +0.076 C 
ATOM     19  C   UNL     1       3.517   6.252  -7.385  0.00  0.00    +0.023 C 
ATOM     20  C   UNL     1       1.955   6.894  -7.087  0.00  0.00    +0.022 C 
ATOM     21  C   UNL     1       4.217   7.001  -6.114  0.00  0.00    +0.037 C 
BRANCH  14  23
ATOM     22  N   UNL     1       5.659   6.989  -3.903  0.00  0.00    -0.194 NA
ATOM     23  C   UNL     1       4.825   6.180  -3.962  0.00  0.00    +0.093 C 
ENDBRANCH  14  23
ENDBRANCH   1  16
TORSDOF 3
ENDMDL
MODEL 9
REMARK VINA RESULT:      -7.5      6.638      8.329
REMARK  Name = 
REMARK  3 active torsions:
REMARK  status: ('A' for Active; 'I' for Inactive)
REMARK    1  A    between atoms: C_2  and  C_3
REMARK    2  A    between atoms: C_9  and  C_11
REMARK    3  A    between atoms: C_11  and  C_13
REMARK                            x       y       z     vdW  Elec       q    Type
REMARK                         _______ _______ _______ _____ _____    ______ ____
ROOT
ATOM      1  C   UNL     1       1.061   5.178  -4.314  0.00  0.00    +0.168 C 
ATOM      2  N   UNL     1       1.579   5.517  -5.764  0.00  0.00    -0.123 NA
ENDROOT
BRANCH   1   3
ATOM      3  C   UNL     1       2.364   5.827  -3.549  0.00  0.00    +0.027 C 
ATOM      4  C   UNL     1       2.594   7.145  -3.897  0.00  0.00    +0.002 C 
ATOM      5  C   UNL     1       4.048   7.701  -3.392  0.00  0.00    +0.002 C 
ATOM      6  C   UNL     1       4.050   7.163  -1.849  0.00  0.00    +0.030 C 
ATOM      7  C   UNL     1       3.650   5.793  -1.694  0.00  0.00    +0.127 C 
ATOM      8  C   UNL     1       4.738   5.077  -2.198  0.00  0.00    +0.030 C 
ATOM      9  C   UNL     1       4.847   5.071  -3.825  0.00  0.00    +0.002 C 
ATOM     10  O   UNL     1       3.605   5.561  -0.327  0.00  0.00    -0.226 OA
ATOM     11  C   UNL     1       5.006   6.631  -4.095  0.00  0.00    +0.000 C 
ATOM     12  C   UNL     1       2.228   5.428  -2.099  0.00  0.00    +0.032 C 
ATOM     13  C   UNL     1       3.272   4.941  -4.204  0.00  0.00    +0.002 C 
ENDBRANCH   1   3
BRANCH   1  16
ATOM     14  C   UNL     1      -2.573   5.638  -4.168  0.00  0.00    +0.167 C 
ATOM     15  N   UNL     1      -1.085   5.789  -3.746  0.00  0.00    -0.269 N 
ATOM     16  C   UNL     1       0.037   6.428  -4.222  0.00  0.00    +0.244 C 
ATOM     17  O   UNL     1      -0.111   7.188  -5.175  0.00  0.00    -0.273 OA
ATOM     18  C   UNL     1      -1.360   5.314  -2.279  0.00  0.00    +0.076 C 
ATOM     19  C   UNL     1      -2.706   6.321  -1.983  0.00  0.00    +0.023 C 
ATOM     20  C   UNL     1      -1.129   6.861  -1.579  0.00  0.00    +0.022 C 
ATOM     21  C   UNL     1      -2.748   7.088  -3.424  0.00  0.00    +0.037 C 
BRANCH  14  23
ATOM     22  N   UNL     1      -2.525   5.639  -6.613  0.00  0.00    -0.194 NA
ATOM     23  C   UNL     1      -2.429   6.264  -5.636  0.00  0.00    +0.093 C 
ENDBRANCH  14  23
ENDBRANCH   1  16
TORSDOF 3
ENDMDL
