MODEL 1
REMARK VINA RESULT:      -5.6      0.000      0.000
REMARK  Name = 
REMARK  3 active torsions:
REMARK  status: ('A' for Active; 'I' for Inactive)
REMARK    1  A    between atoms: C_2  and  C_3
REMARK    2  A    between atoms: C_2  and  C_5
REMARK    3  A    between atoms: C_11  and  C_12
REMARK                            x       y       z     vdW  Elec       q    Type
REMARK                         _______ _______ _______ _____ _____    ______ ____
ROOT
ATOM      1  C   UNL     1      -0.348   5.554  -4.904  0.00  0.00    +0.226 C 
ATOM      2  N   UNL     1      -0.672   6.707  -4.227  0.00  0.00    -0.271 N 
ATOM      3  C   UNL     1      -1.551   6.900  -2.933  0.00  0.00    +0.179 C 
ATOM      4  C   UNL     1      -2.915   6.511  -3.780  0.00  0.00    +0.033 C 
ATOM      5  C   UNL     1      -2.720   7.516  -4.864  0.00  0.00    +0.024 C 
ATOM      6  C   UNL     1      -1.245   7.911  -4.852  0.00  0.00    +0.094 C 
ATOM      7  O   UNL     1      -0.624   5.532  -6.148  0.00  0.00    -0.275 OA
ENDROOT
BRANCH   3   8
ATOM      8  C   UNL     1      -1.453   5.438  -2.284  0.00  0.00    +0.382 C 
ATOM      9  O   UNL     1      -2.568   4.687  -2.612  0.00  0.00    -0.244 OA
ATOM     10  O   UNL     1      -0.623   4.989  -1.617  0.00  0.00    -0.244 OA
ENDBRANCH   3   8
BRANCH   1  12
ATOM     11  C   UNL     1       1.895   6.353  -4.974  0.00  0.00    +0.011 C 
ATOM     12  C   UNL     1       1.117   4.984  -4.550  0.00  0.00    +0.088 C 
BRANCH  12  13
ATOM     13  C   UNL     1       1.346   4.274  -6.005  0.00  0.00    +0.078 C 
ATOM     14  S   UNL     1       2.902   4.969  -6.671  0.00  0.00    -0.082 S 
ENDBRANCH  12  13
ENDBRANCH   1  12
TORSDOF 3
ENDMDL
MODEL 2
REMARK VINA RESULT:      -5.2      7.467      9.646
REMARK  Name = 
REMARK  3 active torsions:
REMARK  status: ('A' for Active; 'I' for Inactive)
REMARK    1  A    between atoms: C_2  and  C_3
REMARK    2  A    between atoms: C_2  and  C_5
REMARK    3  A    between atoms: C_11  and  C_12
REMARK                            x       y       z     vdW  Elec       q    Type
REMARK                         _______ _______ _______ _____ _____    ______ ____
ROOT
ATOM      1  C   UNL     1       5.631   5.648  -9.783  0.00  0.00    +0.226 C 
ATOM      2  N   UNL     1       6.082   6.670 -10.587  0.00  0.00    -0.271 N 
ATOM      3  C   UNL     1       5.989   6.834 -12.150  0.00  0.00    +0.179 C 
ATOM      4  C   UNL     1       7.085   5.617 -12.362  0.00  0.00    +0.033 C 
ATOM      5  C   UNL     1       8.138   6.199 -11.482  0.00  0.00    +0.024 C 
ATOM      6  C   UNL     1       7.452   7.209 -10.564  0.00  0.00    +0.094 C 
ATOM      7  O   UNL     1       6.493   5.110  -9.014  0.00  0.00    -0.275 OA
ENDROOT
BRANCH   3   8
ATOM      8  C   UNL     1       4.751   5.870 -12.480  0.00  0.00    +0.382 C 
ATOM      9  O   UNL     1       5.199   4.662 -12.985  0.00  0.00    -0.244 OA
ATOM     10  O   UNL     1       3.619   6.068 -12.360  0.00  0.00    -0.244 OA
ENDBRANCH   3   8
BRANCH   1  12
ATOM     11  C   UNL     1       4.780   5.681  -7.558  0.00  0.00    +0.011 C 
ATOM     12  C   UNL     1       4.222   5.959  -9.065  0.00  0.00    +0.088 C 
BRANCH  12  13
ATOM     13  C   UNL     1       3.636   4.443  -9.245  0.00  0.00    +0.078 C 
ATOM     14  S   UNL     1       2.476   4.178  -7.855  0.00  0.00    -0.082 S 
ENDBRANCH  12  13
ENDBRANCH   1  12
TORSDOF 3
ENDMDL
MODEL 3
REMARK VINA RESULT:      -5.1      2.837      5.142
REMARK  Name = 
REMARK  3 active torsions:
REMARK  status: ('A' for Active; 'I' for Inactive)
REMARK    1  A    between atoms: C_2  and  C_3
REMARK    2  A    between atoms: C_2  and  C_5
REMARK    3  A    between atoms: C_11  and  C_12
REMARK                            x       y       z     vdW  Elec       q    Type
REMARK                         _______ _______ _______ _____ _____    ______ ____
ROOT
ATOM      1  C   UNL     1       1.195   6.052  -4.666  0.00  0.00    +0.226 C 
ATOM      2  N   UNL     1       2.245   6.802  -4.188  0.00  0.00    -0.271 N 
ATOM      3  C   UNL     1       3.620   7.156  -4.869  0.00  0.00    +0.179 C 
ATOM      4  C   UNL     1       4.119   5.588  -4.717  0.00  0.00    +0.033 C 
ATOM      5  C   UNL     1       3.869   5.485  -3.251  0.00  0.00    +0.024 C 
ATOM      6  C   UNL     1       2.891   6.598  -2.880  0.00  0.00    +0.094 C 
ATOM      7  O   UNL     1       0.811   5.083  -3.932  0.00  0.00    -0.275 OA
ENDROOT
BRANCH   3   8
ATOM      8  C   UNL     1       3.247   6.959  -6.416  0.00  0.00    +0.382 C 
ATOM      9  O   UNL     1       3.647   5.710  -6.856  0.00  0.00    -0.244 OA
ATOM     10  O   UNL     1       2.733   7.696  -7.142  0.00  0.00    -0.244 OA
ENDBRANCH   3   8
BRANCH   1  12
ATOM     11  C   UNL     1      -1.093   6.458  -4.142  0.00  0.00    +0.011 C 
ATOM     12  C   UNL     1      -0.013   6.933  -5.267  0.00  0.00    +0.088 C 
BRANCH  12  13
ATOM     13  C   UNL     1      -0.483   5.804  -6.352  0.00  0.00    +0.078 C 
ATOM     14  S   UNL     1      -2.304   5.691  -6.212  0.00  0.00    -0.082 S 
ENDBRANCH  12  13
ENDBRANCH   1  12
TORSDOF 3
ENDMDL
MODEL 4
REMARK VINA RESULT:      -5.0      3.559      5.507
REMARK  Name = 
REMARK  3 active torsions:
REMARK  status: ('A' for Active; 'I' for Inactive)
REMARK    1  A    between atoms: C_2  and  C_3
REMARK    2  A    between atoms: C_2  and  C_5
REMARK    3  A    between atoms: C_11  and  C_12
REMARK                            x       y       z     vdW  Elec       q    Type
REMARK                         _______ _______ _______ _____ _____    ______ ____
ROOT
ATOM      1  C   UNL     1       0.925   5.556  -7.312  0.00  0.00    +0.226 C 
ATOM      2  N   UNL     1       2.060   4.785  -7.422  0.00  0.00    -0.271 N 
ATOM      3  C   UNL     1       3.554   5.139  -7.070  0.00  0.00    +0.179 C 
ATOM      4  C   UNL     1       3.627   6.181  -8.350  0.00  0.00    +0.033 C 
ATOM      5  C   UNL     1       3.178   5.199  -9.378  0.00  0.00    +0.024 C 
ATOM      6  C   UNL     1       2.467   4.067  -8.641  0.00  0.00    +0.094 C 
ATOM      7  O   UNL     1       0.225   5.687  -8.368  0.00  0.00    -0.275 OA
ENDROOT
BRANCH   3   8
ATOM      8  C   UNL     1       3.340   6.333  -6.022  0.00  0.00    +0.382 C 
ATOM      9  O   UNL     1       3.244   5.836  -4.734  0.00  0.00    -0.244 OA
ATOM     10  O   UNL     1       3.255   7.469  -6.216  0.00  0.00    -0.244 OA
ENDBRANCH   3   8
BRANCH   1  12
ATOM     11  C   UNL     1      -1.365   5.169  -6.782  0.00  0.00    +0.011 C 
ATOM     12  C   UNL     1       0.058   5.250  -5.988  0.00  0.00    +0.088 C 
BRANCH  12  13
ATOM     13  C   UNL     1      -0.136   6.822  -5.582  0.00  0.00    +0.078 C 
ATOM     14  S   UNL     1      -1.849   6.979  -4.959  0.00  0.00    -0.082 S 
ENDBRANCH  12  13
ENDBRANCH   1  12
TORSDOF 3
ENDMDL
MODEL 5
REMARK VINA RESULT:      -5.0      4.485      5.742
REMARK  Name = 
REMARK  3 active torsions:
REMARK  status: ('A' for Active; 'I' for Inactive)
REMARK    1  A    between atoms: C_2  and  C_3
REMARK    2  A    between atoms: C_2  and  C_5
REMARK    3  A    between atoms: C_11  and  C_12
REMARK                            x       y       z     vdW  Elec       q    Type
REMARK                         _______ _______ _______ _____ _____    ______ ____
ROOT
ATOM      1  C   UNL     1       3.933   5.845  -7.410  0.00  0.00    +0.226 C 
ATOM      2  N   UNL     1       2.682   5.295  -7.246  0.00  0.00    -0.271 N 
ATOM      3  C   UNL     1       1.270   5.993  -7.234  0.00  0.00    +0.179 C 
ATOM      4  C   UNL     1       1.613   6.700  -5.781  0.00  0.00    +0.033 C 
ATOM      5  C   UNL     1       1.972   5.439  -5.073  0.00  0.00    +0.024 C 
ATOM      6  C   UNL     1       2.302   4.399  -6.142  0.00  0.00    +0.094 C 
ATOM      7  O   UNL     1       4.787   5.593  -6.499  0.00  0.00    -0.275 OA
ENDROOT
BRANCH   3   8
ATOM      8  C   UNL     1       1.593   7.338  -8.043  0.00  0.00    +0.382 C 
ATOM      9  O   UNL     1       1.299   7.179  -9.386  0.00  0.00    -0.244 OA
ATOM     10  O   UNL     1       2.021   8.339  -7.655  0.00  0.00    -0.244 OA
ENDBRANCH   3   8
BRANCH   1  12
ATOM     11  C   UNL     1       3.872   4.224  -9.155  0.00  0.00    +0.011 C 
ATOM     12  C   UNL     1       4.514   5.703  -8.907  0.00  0.00    +0.088 C 
BRANCH  12  13
ATOM     13  C   UNL     1       5.965   5.114  -8.437  0.00  0.00    +0.078 C 
ATOM     14  S   UNL     1       7.195   5.799  -9.605  0.00  0.00    -0.082 S 
ENDBRANCH  12  13
ENDBRANCH   1  12
TORSDOF 3
ENDMDL
MODEL 6
REMARK VINA RESULT:      -5.0      3.207      4.420
REMARK  Name = 
REMARK  3 active torsions:
REMARK  status: ('A' for Active; 'I' for Inactive)
REMARK    1  A    between atoms: C_2  and  C_3
REMARK    2  A    between atoms: C_2  and  C_5
REMARK    3  A    between atoms: C_11  and  C_12
REMARK                            x       y       z     vdW  Elec       q    Type
REMARK                         _______ _______ _______ _____ _____    ______ ____
ROOT
ATOM      1  C   UNL     1       3.435   6.261  -5.593  0.00  0.00    +0.226 C 
ATOM      2  N   UNL     1       2.324   6.849  -6.152  0.00  0.00    -0.271 N 
ATOM      3  C   UNL     1       0.883   6.258  -6.387  0.00  0.00    +0.179 C 
ATOM      4  C   UNL     1       1.466   5.255  -7.563  0.00  0.00    +0.033 C 
ATOM      5  C   UNL     1       2.116   6.325  -8.373  0.00  0.00    +0.024 C 
ATOM      6  C   UNL     1       2.308   7.532  -7.457  0.00  0.00    +0.094 C 
ATOM      7  O   UNL     1       4.497   6.271  -6.297  0.00  0.00    -0.275 OA
ENDROOT
BRANCH   3   8
ATOM      8  C   UNL     1       0.861   5.081  -5.298  0.00  0.00    +0.382 C 
ATOM      9  O   UNL     1       1.189   3.872  -5.885  0.00  0.00    -0.244 OA
ATOM     10  O   UNL     1       0.611   5.134  -4.171  0.00  0.00    -0.244 OA
ENDBRANCH   3   8
BRANCH   1  12
ATOM     11  C   UNL     1       5.136   7.328  -4.312  0.00  0.00    +0.011 C 
ATOM     12  C   UNL     1       3.672   6.658  -4.049  0.00  0.00    +0.088 C 
BRANCH  12  13
ATOM     13  C   UNL     1       4.293   5.206  -3.625  0.00  0.00    +0.078 C 
ATOM     14  S   UNL     1       3.834   4.949  -1.872  0.00  0.00    -0.082 S 
ENDBRANCH  12  13
ENDBRANCH   1  12
TORSDOF 3
ENDMDL
MODEL 7
REMARK VINA RESULT:      -4.9      3.044      4.960
REMARK  Name = 
REMARK  3 active torsions:
REMARK  status: ('A' for Active; 'I' for Inactive)
REMARK    1  A    between atoms: C_2  and  C_3
REMARK    2  A    between atoms: C_2  and  C_5
REMARK    3  A    between atoms: C_11  and  C_12
REMARK                            x       y       z     vdW  Elec       q    Type
REMARK                         _______ _______ _______ _____ _____    ______ ____
ROOT
ATOM      1  C   UNL     1       0.851   5.699  -6.363  0.00  0.00    +0.226 C 
ATOM      2  N   UNL     1       1.814   4.723  -6.249  0.00  0.00    -0.271 N 
ATOM      3  C   UNL     1       3.169   4.736  -5.446  0.00  0.00    +0.179 C 
ATOM      4  C   UNL     1       3.806   5.834  -6.503  0.00  0.00    +0.033 C 
ATOM      5  C   UNL     1       3.527   5.045  -7.737  0.00  0.00    +0.024 C 
ATOM      6  C   UNL     1       2.441   4.029  -7.387  0.00  0.00    +0.094 C 
ATOM      7  O   UNL     1       0.538   6.050  -7.547  0.00  0.00    -0.275 OA
ENDROOT
BRANCH   3   8
ATOM      8  C   UNL     1       2.858   5.866  -4.352  0.00  0.00    +0.382 C 
ATOM      9  O   UNL     1       3.303   7.100  -4.791  0.00  0.00    -0.244 OA
ATOM     10  O   UNL     1       2.354   5.762  -3.318  0.00  0.00    -0.244 OA
ENDBRANCH   3   8
BRANCH   1  12
ATOM     11  C   UNL     1      -1.510   5.492  -6.600  0.00  0.00    +0.011 C 
ATOM     12  C   UNL     1      -0.416   5.478  -5.391  0.00  0.00    +0.088 C 
BRANCH  12  13
ATOM     13  C   UNL     1      -0.610   7.066  -5.053  0.00  0.00    +0.078 C 
ATOM     14  S   UNL     1      -2.412   7.336  -4.894  0.00  0.00    -0.082 S 
ENDBRANCH  12  13
ENDBRANCH   1  12
TORSDOF 3
ENDMDL
MODEL 8
REMARK VINA RESULT:      -4.9      3.662      5.291
REMARK  Name = 
REMARK  3 active torsions:
REMARK  status: ('A' for Active; 'I' for Inactive)
REMARK    1  A    between atoms: C_2  and  C_3
REMARK    2  A    between atoms: C_2  and  C_5
REMARK    3  A    between atoms: C_11  and  C_12
REMARK                            x       y       z     vdW  Elec       q    Type
REMARK                         _______ _______ _______ _____ _____    ______ ____
ROOT
ATOM      1  C   UNL     1       2.878   5.985  -5.440  0.00  0.00    +0.226 C 
ATOM      2  N   UNL     1       2.383   5.185  -6.444  0.00  0.00    -0.271 N 
ATOM      3  C   UNL     1       1.754   5.585  -7.832  0.00  0.00    +0.179 C 
ATOM      4  C   UNL     1       0.415   6.185  -7.072  0.00  0.00    +0.033 C 
ATOM      5  C   UNL     1       0.109   4.950  -6.295  0.00  0.00    +0.024 C 
ATOM      6  C   UNL     1       1.388   4.117  -6.247  0.00  0.00    +0.094 C 
ATOM      7  O   UNL     1       2.384   5.809  -4.279  0.00  0.00    -0.275 OA
ENDROOT
BRANCH   3   8
ATOM      8  C   UNL     1       2.379   7.048  -8.033  0.00  0.00    +0.382 C 
ATOM      9  O   UNL     1       3.552   6.977  -8.764  0.00  0.00    -0.244 OA
ATOM     10  O   UNL     1       1.989   8.067  -7.654  0.00  0.00    -0.244 OA
ENDBRANCH   3   8
BRANCH   1  12
ATOM     11  C   UNL     1       4.696   5.280  -4.072  0.00  0.00    +0.011 C 
ATOM     12  C   UNL     1       4.484   6.123  -5.452  0.00  0.00    +0.088 C 
BRANCH  12  13
ATOM     13  C   UNL     1       4.505   7.573  -4.696  0.00  0.00    +0.078 C 
ATOM     14  S   UNL     1       5.235   7.275  -3.045  0.00  0.00    -0.082 S 
ENDBRANCH  12  13
ENDBRANCH   1  12
TORSDOF 3
ENDMDL
MODEL 9
REMARK VINA RESULT:      -4.9      2.587      4.932
REMARK  Name = 
REMARK  3 active torsions:
REMARK  status: ('A' for Active; 'I' for Inactive)
REMARK    1  A    between atoms: C_2  and  C_3
REMARK    2  A    between atoms: C_2  and  C_5
REMARK    3  A    between atoms: C_11  and  C_12
REMARK                            x       y       z     vdW  Elec       q    Type
REMARK                         _______ _______ _______ _____ _____    ______ ____
ROOT
ATOM      1  C   UNL     1       0.823   5.336  -4.148  0.00  0.00    +0.226 C 
ATOM      2  N   UNL     1       1.789   6.123  -4.731  0.00  0.00    -0.271 N 
ATOM      3  C   UNL     1       2.797   5.784  -5.893  0.00  0.00    +0.179 C 
ATOM      4  C   UNL     1       3.629   4.762  -4.898  0.00  0.00    +0.033 C 
ATOM      5  C   UNL     1       3.853   5.752  -3.806  0.00  0.00    +0.024 C 
ATOM      6  C   UNL     1       2.822   6.864  -3.988  0.00  0.00    +0.094 C 
ATOM      7  O   UNL     1       0.881   5.210  -2.882  0.00  0.00    -0.275 OA
ENDROOT
BRANCH   3   8
ATOM      8  C   UNL     1       2.030   4.572  -6.610  0.00  0.00    +0.382 C 
ATOM      9  O   UNL     1       1.185   5.050  -7.596  0.00  0.00    -0.244 OA
ATOM     10  O   UNL     1       2.097   3.439  -6.399  0.00  0.00    -0.244 OA
ENDBRANCH   3   8
BRANCH   1  12
ATOM     11  C   UNL     1      -0.419   7.206  -4.945  0.00  0.00    +0.011 C 
ATOM     12  C   UNL     1      -0.664   5.611  -4.709  0.00  0.00    +0.088 C 
BRANCH  12  13
ATOM     13  C   UNL     1      -1.332   5.822  -3.232  0.00  0.00    +0.078 C 
ATOM     14  S   UNL     1      -3.093   5.352  -3.398  0.00  0.00    -0.082 S 
ENDBRANCH  12  13
ENDBRANCH   1  12
TORSDOF 3
ENDMDL
