MODEL 1
REMARK VINA RESULT:      -8.5      0.000      0.000
REMARK  Name = 
REMARK  7 active torsions:
REMARK  status: ('A' for Active; 'I' for Inactive)
REMARK    1  A    between atoms: O_2  and  C_3
REMARK    2  A    between atoms: C_6  and  C_7
REMARK    3  A    between atoms: C_7  and  C_8
REMARK    4  A    between atoms: C_8  and  N_11
REMARK    5  A    between atoms: N_11  and  C_12
REMARK    6  A    between atoms: C_12  and  C_13
REMARK    7  A    between atoms: C_13  and  C_15
REMARK                            x       y       z     vdW  Elec       q    Type
REMARK                         _______ _______ _______ _____ _____    ______ ____
ROOT
ATOM      1  C   UNL     1       1.531   4.896  -8.142  0.00  0.00    +0.126 C 
ENDROOT
BRANCH   1   2
ATOM      2  C   UNL     1       2.313   4.916  -6.693  0.00  0.00    +0.195 C 
ATOM      3  O   UNL     1       2.008   3.462  -6.360  0.00  0.00    -0.217 OA
BRANCH   2   4
ATOM      4  C   UNL     1       1.020   5.483  -5.905  0.00  0.00    +0.048 A 
ATOM      5  C   UNL     1       1.255   5.783  -4.581  0.00  0.00    +0.153 A 
ATOM      6  O   UNL     1       2.478   5.621  -3.965  0.00  0.00    -0.464 OA
ATOM      7  C   UNL     1       2.672   5.372  -2.599  0.00  0.00    +0.292 C 
ATOM      8  C   UNL     1       1.483   5.641  -1.770  0.00  0.00    +0.290 C 
ATOM      9  N   UNL     1       0.334   6.210  -2.366  0.00  0.00    -0.173 NA
ATOM     10  O   UNL     1       1.491   5.180  -0.588  0.00  0.00    -0.269 OA
ATOM     11  C   UNL     1       0.169   6.094  -3.784  0.00  0.00    +0.110 A 
ATOM     12  C   UNL     1      -1.088   6.128  -4.376  0.00  0.00    +0.062 A 
ATOM     13  C   UNL     1      -1.285   5.818  -5.698  0.00  0.00    +0.197 A 
ATOM     14  O   UNL     1      -2.526   5.233  -5.987  0.00  0.00    -0.287 OA
ATOM     15  C   UNL     1      -0.184   5.488  -6.482  0.00  0.00    +0.043 A 
ENDBRANCH   2   4
ENDBRANCH   1   2
BRANCH   1  16
ATOM     16  N   UNL     1       2.423   4.768  -9.205  0.00  0.00    -0.217 NA
BRANCH  16  17
ATOM     17  C   UNL     1       2.545   6.016  -9.925  0.00  0.00    +0.064 C 
ATOM     18  C   UNL     1       1.250   6.803  -9.787  0.00  0.00    +0.018 C 
ATOM     19  C   UNL     1       2.760   5.803 -11.399  0.00  0.00    +0.018 C 
BRANCH  17  20
ATOM     20  C   UNL     1       3.660   6.880  -9.375  0.00  0.00    +0.042 C 
BRANCH  20  24
ATOM     21  C   UNL     1       7.506   6.479 -10.957  0.00  0.00    +0.139 A 
ATOM     22  C   UNL     1       6.729   7.575 -11.310  0.00  0.00    +0.037 A 
ATOM     23  C   UNL     1       5.365   7.516 -11.055  0.00  0.00    -0.001 A 
ATOM     24  C   UNL     1       4.932   6.610 -10.094  0.00  0.00    -0.021 A 
ATOM     25  C   UNL     1       5.800   5.705  -9.520  0.00  0.00    -0.001 A 
ATOM     26  C   UNL     1       7.093   5.568 -10.001  0.00  0.00    +0.037 A 
BRANCH  21  28
ATOM     27  C   UNL     1       9.150   5.900 -12.136  0.00  0.00    +0.252 C 
ATOM     28  O   UNL     1       8.624   6.135 -11.722  0.00  0.00    -0.471 OA
ENDBRANCH  21  28
ENDBRANCH  20  24
ENDBRANCH  17  20
ENDBRANCH  16  17
ENDBRANCH   1  16
TORSDOF 7
ENDMDL
MODEL 2
REMARK VINA RESULT:      -8.1      1.629      3.199
REMARK  Name = 
REMARK  7 active torsions:
REMARK  status: ('A' for Active; 'I' for Inactive)
REMARK    1  A    between atoms: O_2  and  C_3
REMARK    2  A    between atoms: C_6  and  C_7
REMARK    3  A    between atoms: C_7  and  C_8
REMARK    4  A    between atoms: C_8  and  N_11
REMARK    5  A    between atoms: N_11  and  C_12
REMARK    6  A    between atoms: C_12  and  C_13
REMARK    7  A    between atoms: C_13  and  C_15
REMARK                            x       y       z     vdW  Elec       q    Type
REMARK                         _______ _______ _______ _____ _____    ______ ____
ROOT
ATOM      1  C   UNL     1       2.462   5.399  -5.882  0.00  0.00    +0.126 C 
ENDROOT
BRANCH   1   2
ATOM      2  C   UNL     1       1.873   6.755  -5.157  0.00  0.00    +0.195 C 
ATOM      3  O   UNL     1       3.227   7.228  -4.646  0.00  0.00    -0.217 OA
BRANCH   2   4
ATOM      4  C   UNL     1       1.507   5.971  -3.791  0.00  0.00    +0.048 A 
ATOM      5  C   UNL     1       0.164   5.702  -3.640  0.00  0.00    +0.153 A 
ATOM      6  O   UNL     1      -0.797   6.061  -4.562  0.00  0.00    -0.464 OA
ATOM      7  C   UNL     1      -2.142   6.326  -4.270  0.00  0.00    +0.292 C 
ATOM      8  C   UNL     1      -2.567   5.853  -2.939  0.00  0.00    +0.290 C 
ATOM      9  N   UNL     1      -1.666   5.105  -2.146  0.00  0.00    -0.173 NA
ATOM     10  O   UNL     1      -3.670   6.297  -2.498  0.00  0.00    -0.269 OA
ATOM     11  C   UNL     1      -0.264   5.206  -2.423  0.00  0.00    +0.110 A 
ATOM     12  C   UNL     1       0.690   4.967  -1.442  0.00  0.00    +0.062 A 
ATOM     13  C   UNL     1       2.020   5.252  -1.626  0.00  0.00    +0.197 A 
ATOM     14  O   UNL     1       2.709   5.624  -0.463  0.00  0.00    -0.287 OA
ATOM     15  C   UNL     1       2.432   5.770  -2.850  0.00  0.00    +0.043 A 
ENDBRANCH   2   4
ENDBRANCH   1   2
BRANCH   1  16
ATOM     16  N   UNL     1       1.644   4.980  -6.930  0.00  0.00    -0.217 NA
BRANCH  16  17
ATOM     17  C   UNL     1       2.294   5.190  -8.204  0.00  0.00    +0.064 C 
ATOM     18  C   UNL     1       1.249   5.567  -9.243  0.00  0.00    +0.018 C 
ATOM     19  C   UNL     1       2.968   3.944  -8.710  0.00  0.00    +0.018 C 
BRANCH  17  20
ATOM     20  C   UNL     1       3.302   6.318  -8.146  0.00  0.00    +0.042 C 
BRANCH  20  24
ATOM     21  C   UNL     1       6.747   6.086 -10.499  0.00  0.00    +0.139 A 
ATOM     22  C   UNL     1       5.694   6.897 -10.901  0.00  0.00    +0.037 A 
ATOM     23  C   UNL     1       4.455   6.701 -10.305  0.00  0.00    -0.001 A 
ATOM     24  C   UNL     1       4.432   6.055  -9.074  0.00  0.00    -0.021 A 
ATOM     25  C   UNL     1       5.574   5.502  -8.534  0.00  0.00    -0.001 A 
ATOM     26  C   UNL     1       6.744   5.437  -9.277  0.00  0.00    +0.037 A 
BRANCH  21  28
ATOM     27  C   UNL     1       8.287   5.573 -11.837  0.00  0.00    +0.252 C 
ATOM     28  O   UNL     1       7.737   5.715 -11.413  0.00  0.00    -0.471 OA
ENDBRANCH  21  28
ENDBRANCH  20  24
ENDBRANCH  17  20
ENDBRANCH  16  17
ENDBRANCH   1  16
TORSDOF 7
ENDMDL
MODEL 3
REMARK VINA RESULT:      -8.1      1.636      2.802
REMARK  Name = 
REMARK  7 active torsions:
REMARK  status: ('A' for Active; 'I' for Inactive)
REMARK    1  A    between atoms: O_2  and  C_3
REMARK    2  A    between atoms: C_6  and  C_7
REMARK    3  A    between atoms: C_7  and  C_8
REMARK    4  A    between atoms: C_8  and  N_11
REMARK    5  A    between atoms: N_11  and  C_12
REMARK    6  A    between atoms: C_12  and  C_13
REMARK    7  A    between atoms: C_13  and  C_15
REMARK                            x       y       z     vdW  Elec       q    Type
REMARK                         _______ _______ _______ _____ _____    ______ ____
ROOT
ATOM      1  C   UNL     1       1.743   5.306  -7.180  0.00  0.00    +0.126 C 
ENDROOT
BRANCH   1   2
ATOM      2  C   UNL     1       0.985   6.322  -6.129  0.00  0.00    +0.195 C 
ATOM      3  O   UNL     1       1.399   7.594  -6.854  0.00  0.00    -0.217 OA
BRANCH   2   4
ATOM      4  C   UNL     1       2.246   6.355  -5.117  0.00  0.00    +0.048 A 
ATOM      5  C   UNL     1       1.983   5.826  -3.873  0.00  0.00    +0.153 A 
ATOM      6  O   UNL     1       0.760   5.307  -3.504  0.00  0.00    -0.464 OA
ATOM      7  C   UNL     1       0.255   5.270  -2.197  0.00  0.00    +0.292 C 
ATOM      8  C   UNL     1       1.274   5.509  -1.158  0.00  0.00    +0.290 C 
ATOM      9  N   UNL     1       2.631   5.636  -1.531  0.00  0.00    -0.173 NA
ATOM     10  O   UNL     1       0.852   5.768   0.010  0.00  0.00    -0.269 OA
ATOM     11  C   UNL     1       2.940   5.983  -2.887  0.00  0.00    +0.110 A 
ATOM     12  C   UNL     1       4.125   6.626  -3.222  0.00  0.00    +0.062 A 
ATOM     13  C   UNL     1       4.351   7.146  -4.472  0.00  0.00    +0.197 A 
ATOM     14  O   UNL     1       5.169   8.284  -4.498  0.00  0.00    -0.287 OA
ATOM     15  C   UNL     1       3.370   6.997  -5.447  0.00  0.00    +0.043 A 
ENDBRANCH   2   4
ENDBRANCH   1   2
BRANCH   1  16
ATOM     16  N   UNL     1       1.587   5.723  -8.501  0.00  0.00    -0.217 NA
BRANCH  16  17
ATOM     17  C   UNL     1       2.807   5.519  -9.250  0.00  0.00    +0.064 C 
ATOM     18  C   UNL     1       2.486   5.512 -10.737  0.00  0.00    +0.018 C 
ATOM     19  C   UNL     1       3.445   4.191  -8.945  0.00  0.00    +0.018 C 
BRANCH  17  20
ATOM     20  C   UNL     1       3.811   6.625  -9.010  0.00  0.00    +0.042 C 
BRANCH  20  24
ATOM     21  C   UNL     1       7.530   6.427 -10.905  0.00  0.00    +0.139 A 
ATOM     22  C   UNL     1       6.596   7.367 -11.321  0.00  0.00    +0.037 A 
ATOM     23  C   UNL     1       5.276   7.195 -10.924  0.00  0.00    -0.001 A 
ATOM     24  C   UNL     1       5.041   6.396  -9.811  0.00  0.00    -0.021 A 
ATOM     25  C   UNL     1       6.060   5.686  -9.211  0.00  0.00    -0.001 A 
ATOM     26  C   UNL     1       7.315   5.624  -9.798  0.00  0.00    +0.037 A 
BRANCH  21  28
ATOM     27  C   UNL     1       9.110   5.904 -12.192  0.00  0.00    +0.252 C 
ATOM     28  O   UNL     1       8.612   6.100 -11.727  0.00  0.00    -0.471 OA
ENDBRANCH  21  28
ENDBRANCH  20  24
ENDBRANCH  17  20
ENDBRANCH  16  17
ENDBRANCH   1  16
TORSDOF 7
ENDMDL
MODEL 4
REMARK VINA RESULT:      -8.1      1.537      1.928
REMARK  Name = 
REMARK  7 active torsions:
REMARK  status: ('A' for Active; 'I' for Inactive)
REMARK    1  A    between atoms: O_2  and  C_3
REMARK    2  A    between atoms: C_6  and  C_7
REMARK    3  A    between atoms: C_7  and  C_8
REMARK    4  A    between atoms: C_8  and  N_11
REMARK    5  A    between atoms: N_11  and  C_12
REMARK    6  A    between atoms: C_12  and  C_13
REMARK    7  A    between atoms: C_13  and  C_15
REMARK                            x       y       z     vdW  Elec       q    Type
REMARK                         _______ _______ _______ _____ _____    ______ ____
ROOT
ATOM      1  C   UNL     1       1.099   6.164  -6.632  0.00  0.00    +0.126 C 
ENDROOT
BRANCH   1   2
ATOM      2  C   UNL     1       1.879   5.073  -5.676  0.00  0.00    +0.195 C 
ATOM      3  O   UNL     1       0.908   3.935  -5.956  0.00  0.00    -0.217 OA
BRANCH   2   4
ATOM      4  C   UNL     1       1.104   5.556  -4.343  0.00  0.00    +0.048 A 
ATOM      5  C   UNL     1       1.936   5.976  -3.329  0.00  0.00    +0.153 A 
ATOM      6  O   UNL     1       3.311   5.993  -3.425  0.00  0.00    -0.464 OA
ATOM      7  C   UNL     1       4.201   5.868  -2.348  0.00  0.00    +0.292 C 
ATOM      8  C   UNL     1       3.573   6.069  -1.030  0.00  0.00    +0.290 C 
ATOM      9  N   UNL     1       2.218   6.466  -0.958  0.00  0.00    -0.173 NA
ATOM     10  O   UNL     1       4.239   5.700  -0.015  0.00  0.00    -0.269 OA
ATOM     11  C   UNL     1       1.374   6.228  -2.091  0.00  0.00    +0.110 A 
ATOM     12  C   UNL     1      -0.002   6.083  -1.956  0.00  0.00    +0.062 A 
ATOM     13  C   UNL     1      -0.800   5.657  -2.987  0.00  0.00    +0.197 A 
ATOM     14  O   UNL     1      -1.928   4.923  -2.595  0.00  0.00    -0.287 OA
ATOM     15  C   UNL     1      -0.216   5.389  -4.222  0.00  0.00    +0.043 A 
ENDBRANCH   2   4
ENDBRANCH   1   2
BRANCH   1  16
ATOM     16  N   UNL     1       0.582   5.565  -7.779  0.00  0.00    -0.217 NA
BRANCH  16  17
ATOM     17  C   UNL     1       1.440   5.807  -8.916  0.00  0.00    +0.064 C 
ATOM     18  C   UNL     1       0.621   6.428 -10.039  0.00  0.00    +0.018 C 
ATOM     19  C   UNL     1       2.024   4.535  -9.468  0.00  0.00    +0.018 C 
BRANCH  17  20
ATOM     20  C   UNL     1       2.559   6.771  -8.587  0.00  0.00    +0.042 C 
BRANCH  20  24
ATOM     21  C   UNL     1       6.370   6.079 -10.154  0.00  0.00    +0.139 A 
ATOM     22  C   UNL     1       5.541   7.020 -10.752  0.00  0.00    +0.037 A 
ATOM     23  C   UNL     1       4.189   6.990 -10.439  0.00  0.00    -0.001 A 
ATOM     24  C   UNL     1       3.819   6.359  -9.257  0.00  0.00    -0.021 A 
ATOM     25  C   UNL     1       4.737   5.663  -8.499  0.00  0.00    -0.001 A 
ATOM     26  C   UNL     1       6.020   5.441  -8.977  0.00  0.00    +0.037 A 
BRANCH  21  28
ATOM     27  C   UNL     1       8.043   5.392 -11.229  0.00  0.00    +0.252 C 
ATOM     28  O   UNL     1       7.477   5.577 -10.844  0.00  0.00    -0.471 OA
ENDBRANCH  21  28
ENDBRANCH  20  24
ENDBRANCH  17  20
ENDBRANCH  16  17
ENDBRANCH   1  16
TORSDOF 7
ENDMDL
MODEL 5
REMARK VINA RESULT:      -8.0      2.617      9.057
REMARK  Name = 
REMARK  7 active torsions:
REMARK  status: ('A' for Active; 'I' for Inactive)
REMARK    1  A    between atoms: O_2  and  C_3
REMARK    2  A    between atoms: C_6  and  C_7
REMARK    3  A    between atoms: C_7  and  C_8
REMARK    4  A    between atoms: C_8  and  N_11
REMARK    5  A    between atoms: N_11  and  C_12
REMARK    6  A    between atoms: C_12  and  C_13
REMARK    7  A    between atoms: C_13  and  C_15
REMARK                            x       y       z     vdW  Elec       q    Type
REMARK                         _______ _______ _______ _____ _____    ______ ____
ROOT
ATOM      1  C   UNL     1       3.687   5.142  -9.138  0.00  0.00    +0.126 C 
ENDROOT
BRANCH   1   2
ATOM      2  C   UNL     1       3.815   6.583  -9.925  0.00  0.00    +0.195 C 
ATOM      3  O   UNL     1       2.339   6.666 -10.288  0.00  0.00    -0.217 OA
BRANCH   2   4
ATOM      4  C   UNL     1       4.234   5.882 -11.321  0.00  0.00    +0.048 A 
ATOM      5  C   UNL     1       5.566   5.543 -11.402  0.00  0.00    +0.153 A 
ATOM      6  O   UNL     1       6.477   5.771 -10.392  0.00  0.00    -0.464 OA
ATOM      7  C   UNL     1       7.853   5.974 -10.572  0.00  0.00    +0.292 C 
ATOM      8  C   UNL     1       8.345   5.577 -11.904  0.00  0.00    +0.290 C 
ATOM      9  N   UNL     1       7.463   4.948 -12.812  0.00  0.00    -0.173 NA
ATOM     10  O   UNL     1       9.500   5.984 -12.234  0.00  0.00    -0.269 OA
ATOM     11  C   UNL     1       6.052   5.114 -12.623  0.00  0.00    +0.110 A 
ATOM     12  C   UNL     1       5.159   5.009 -13.682  0.00  0.00    +0.062 A 
ATOM     13  C   UNL     1       3.837   5.361 -13.566  0.00  0.00    +0.197 A 
ATOM     14  O   UNL     1       3.256   5.860 -14.739  0.00  0.00    -0.287 OA
ATOM     15  C   UNL     1       3.368   5.810 -12.335  0.00  0.00    +0.043 A 
ENDBRANCH   2   4
ENDBRANCH   1   2
BRANCH   1  16
ATOM     16  N   UNL     1       2.387   4.915  -8.690  0.00  0.00    -0.217 NA
BRANCH  16  17
ATOM     17  C   UNL     1       2.251   5.287  -7.300  0.00  0.00    +0.064 C 
ATOM     18  C   UNL     1       3.609   5.713  -6.760  0.00  0.00    +0.018 C 
ATOM     19  C   UNL     1       1.795   4.135  -6.445  0.00  0.00    +0.018 C 
BRANCH  17  20
ATOM     20  C   UNL     1       1.305   6.454  -7.115  0.00  0.00    +0.042 C 
BRANCH  20  24
ATOM     21  C   UNL     1      -1.923   6.063  -4.492  0.00  0.00    +0.139 A 
ATOM     22  C   UNL     1      -0.758   6.684  -4.060  0.00  0.00    +0.037 A 
ATOM     23  C   UNL     1       0.395   6.501  -4.812  0.00  0.00    -0.001 A 
ATOM     24  C   UNL     1       0.240   6.113  -6.138  0.00  0.00    -0.021 A 
ATOM     25  C   UNL     1      -0.998   5.780  -6.646  0.00  0.00    -0.001 A 
ATOM     26  C   UNL     1      -2.097   5.671  -5.808  0.00  0.00    +0.037 A 
BRANCH  21  28
ATOM     27  C   UNL     1      -3.343   5.311  -3.133  0.00  0.00    +0.252 C 
ATOM     28  O   UNL     1      -2.863   5.607  -3.563  0.00  0.00    -0.471 OA
ENDBRANCH  21  28
ENDBRANCH  20  24
ENDBRANCH  17  20
ENDBRANCH  16  17
ENDBRANCH   1  16
TORSDOF 7
ENDMDL
MODEL 6
REMARK VINA RESULT:      -8.0      2.793      8.316
REMARK  Name = 
REMARK  7 active torsions:
REMARK  status: ('A' for Active; 'I' for Inactive)
REMARK    1  A    between atoms: O_2  and  C_3
REMARK    2  A    between atoms: C_6  and  C_7
REMARK    3  A    between atoms: C_7  and  C_8
REMARK    4  A    between atoms: C_8  and  N_11
REMARK    5  A    between atoms: N_11  and  C_12
REMARK    6  A    between atoms: C_12  and  C_13
REMARK    7  A    between atoms: C_13  and  C_15
REMARK                            x       y       z     vdW  Elec       q    Type
REMARK                         _______ _______ _______ _____ _____    ______ ____
ROOT
ATOM      1  C   UNL     1       3.648   5.200  -9.008  0.00  0.00    +0.126 C 
ENDROOT
BRANCH   1   2
ATOM      2  C   UNL     1       3.796   6.643  -9.788  0.00  0.00    +0.195 C 
ATOM      3  O   UNL     1       2.310   6.782 -10.089  0.00  0.00    -0.217 OA
BRANCH   2   4
ATOM      4  C   UNL     1       4.131   5.941 -11.205  0.00  0.00    +0.048 A 
ATOM      5  C   UNL     1       5.449   5.567 -11.350  0.00  0.00    +0.153 A 
ATOM      6  O   UNL     1       6.412   5.764 -10.383  0.00  0.00    -0.464 OA
ATOM      7  C   UNL     1       7.783   5.931 -10.624  0.00  0.00    +0.292 C 
ATOM      8  C   UNL     1       8.201   5.531 -11.980  0.00  0.00    +0.290 C 
ATOM      9  N   UNL     1       7.262   4.931 -12.850  0.00  0.00    -0.173 NA
ATOM     10  O   UNL     1       9.350   5.910 -12.361  0.00  0.00    -0.269 OA
ATOM     11  C   UNL     1       5.867   5.133 -12.595  0.00  0.00    +0.110 A 
ATOM     12  C   UNL     1       4.923   5.059 -13.612  0.00  0.00    +0.062 A 
ATOM     13  C   UNL     1       3.618   5.445 -13.433  0.00  0.00    +0.197 A 
ATOM     14  O   UNL     1       2.996   5.968 -14.575  0.00  0.00    -0.287 OA
ATOM     15  C   UNL     1       3.218   5.898 -12.179  0.00  0.00    +0.043 A 
ENDBRANCH   2   4
ENDBRANCH   1   2
BRANCH   1  16
ATOM     16  N   UNL     1       2.390   5.057  -8.426  0.00  0.00    -0.217 NA
BRANCH  16  17
ATOM     17  C   UNL     1       2.480   5.125  -6.985  0.00  0.00    +0.064 C 
ATOM     18  C   UNL     1       1.985   3.814  -6.389  0.00  0.00    +0.018 C 
ATOM     19  C   UNL     1       1.608   6.209  -6.411  0.00  0.00    +0.018 C 
BRANCH  17  20
ATOM     20  C   UNL     1       3.905   5.325  -6.515  0.00  0.00    +0.042 C 
BRANCH  20  24
ATOM     21  C   UNL     1       4.590   6.816  -2.673  0.00  0.00    +0.139 A 
ATOM     22  C   UNL     1       4.476   5.445  -2.867  0.00  0.00    +0.037 A 
ATOM     23  C   UNL     1       3.919   5.001  -4.060  0.00  0.00    -0.001 A 
ATOM     24  C   UNL     1       3.927   5.879  -5.137  0.00  0.00    -0.021 A 
ATOM     25  C   UNL     1       4.337   7.188  -4.991  0.00  0.00    -0.001 A 
ATOM     26  C   UNL     1       4.602   7.706  -3.732  0.00  0.00    +0.037 A 
BRANCH  21  28
ATOM     27  C   UNL     1       4.400   7.557  -0.713  0.00  0.00    +0.252 C 
ATOM     28  O   UNL     1       4.463   7.356  -1.390  0.00  0.00    -0.471 OA
ENDBRANCH  21  28
ENDBRANCH  20  24
ENDBRANCH  17  20
ENDBRANCH  16  17
ENDBRANCH   1  16
TORSDOF 7
ENDMDL
MODEL 7
REMARK VINA RESULT:      -7.8      2.375      8.718
REMARK  Name = 
REMARK  7 active torsions:
REMARK  status: ('A' for Active; 'I' for Inactive)
REMARK    1  A    between atoms: O_2  and  C_3
REMARK    2  A    between atoms: C_6  and  C_7
REMARK    3  A    between atoms: C_7  and  C_8
REMARK    4  A    between atoms: C_8  and  N_11
REMARK    5  A    between atoms: N_11  and  C_12
REMARK    6  A    between atoms: C_12  and  C_13
REMARK    7  A    between atoms: C_13  and  C_15
REMARK                            x       y       z     vdW  Elec       q    Type
REMARK                         _______ _______ _______ _____ _____    ______ ____
ROOT
ATOM      1  C   UNL     1      -0.137   5.742  -6.486  0.00  0.00    +0.126 C 
ENDROOT
BRANCH   1   2
ATOM      2  C   UNL     1       1.491   5.498  -6.543  0.00  0.00    +0.195 C 
ATOM      3  O   UNL     1       1.849   6.974  -6.442  0.00  0.00    -0.217 OA
BRANCH   2   4
ATOM      4  C   UNL     1       1.521   5.485  -8.159  0.00  0.00    +0.048 A 
ATOM      5  C   UNL     1       2.762   5.226  -8.697  0.00  0.00    +0.153 A 
ATOM      6  O   UNL     1       3.891   4.994  -7.940  0.00  0.00    -0.464 OA
ATOM      7  C   UNL     1       5.207   5.264  -8.341  0.00  0.00    +0.292 C 
ATOM      8  C   UNL     1       5.351   5.497  -9.790  0.00  0.00    +0.290 C 
ATOM      9  N   UNL     1       4.233   5.326 -10.637  0.00  0.00    -0.173 NA
ATOM     10  O   UNL     1       6.440   6.017 -10.181  0.00  0.00    -0.269 OA
ATOM     11  C   UNL     1       2.922   5.381 -10.061  0.00  0.00    +0.110 A 
ATOM     12  C   UNL     1       1.812   5.746 -10.813  0.00  0.00    +0.062 A 
ATOM     13  C   UNL     1       0.591   6.002 -10.242  0.00  0.00    +0.197 A 
ATOM     14  O   UNL     1      -0.182   6.962 -10.909  0.00  0.00    -0.287 OA
ATOM     15  C   UNL     1       0.451   5.860  -8.865  0.00  0.00    +0.043 A 
ENDBRANCH   2   4
ENDBRANCH   1   2
BRANCH   1  16
ATOM     16  N   UNL     1      -0.538   6.245  -5.250  0.00  0.00    -0.217 NA
BRANCH  16  17
ATOM     17  C   UNL     1      -1.979   6.228  -5.134  0.00  0.00    +0.064 C 
ATOM     18  C   UNL     1      -2.570   5.496  -6.330  0.00  0.00    +0.018 C 
ATOM     19  C   UNL     1      -2.566   7.614  -5.149  0.00  0.00    +0.018 C 
BRANCH  17  20
ATOM     20  C   UNL     1      -2.439   5.502  -3.888  0.00  0.00    +0.042 C 
BRANCH  20  24
ATOM     21  C   UNL     1      -0.771   6.542  -0.201  0.00  0.00    +0.139 A 
ATOM     22  C   UNL     1      -2.058   6.960  -0.515  0.00  0.00    +0.037 A 
ATOM     23  C   UNL     1      -2.456   6.902  -1.845  0.00  0.00    -0.001 A 
ATOM     24  C   UNL     1      -1.756   6.045  -2.685  0.00  0.00    -0.021 A 
ATOM     25  C   UNL     1      -0.622   5.389  -2.256  0.00  0.00    -0.001 A 
ATOM     26  C   UNL     1      -0.059   5.688  -1.024  0.00  0.00    +0.037 A 
BRANCH  21  28
ATOM     27  C   UNL     1       0.353   7.448   1.330  0.00  0.00    +0.252 C 
ATOM     28  O   UNL     1      -0.068   7.156   0.840  0.00  0.00    -0.471 OA
ENDBRANCH  21  28
ENDBRANCH  20  24
ENDBRANCH  17  20
ENDBRANCH  16  17
ENDBRANCH   1  16
TORSDOF 7
ENDMDL
MODEL 8
REMARK VINA RESULT:      -7.8      3.041      4.776
REMARK  Name = 
REMARK  7 active torsions:
REMARK  status: ('A' for Active; 'I' for Inactive)
REMARK    1  A    between atoms: O_2  and  C_3
REMARK    2  A    between atoms: C_6  and  C_7
REMARK    3  A    between atoms: C_7  and  C_8
REMARK    4  A    between atoms: C_8  and  N_11
REMARK    5  A    between atoms: N_11  and  C_12
REMARK    6  A    between atoms: C_12  and  C_13
REMARK    7  A    between atoms: C_13  and  C_15
REMARK                            x       y       z     vdW  Elec       q    Type
REMARK                         _______ _______ _______ _____ _____    ______ ____
ROOT
ATOM      1  C   UNL     1       3.527   5.641  -5.650  0.00  0.00    +0.126 C 
ENDROOT
BRANCH   1   2
ATOM      2  C   UNL     1       2.986   6.928  -4.776  0.00  0.00    +0.195 C 
ATOM      3  O   UNL     1       4.373   7.400  -4.365  0.00  0.00    -0.217 OA
BRANCH   2   4
ATOM      4  C   UNL     1       2.769   6.042  -3.441  0.00  0.00    +0.048 A 
ATOM      5  C   UNL     1       1.462   5.670  -3.219  0.00  0.00    +0.153 A 
ATOM      6  O   UNL     1       0.417   6.011  -4.051  0.00  0.00    -0.464 OA
ATOM      7  C   UNL     1      -0.920   6.163  -3.654  0.00  0.00    +0.292 C 
ATOM      8  C   UNL     1      -1.217   5.585  -2.331  0.00  0.00    +0.290 C 
ATOM      9  N   UNL     1      -0.215   4.859  -1.647  0.00  0.00    -0.173 NA
ATOM     10  O   UNL     1      -2.314   5.923  -1.791  0.00  0.00    -0.269 OA
ATOM     11  C   UNL     1       1.154   5.075  -2.009  0.00  0.00    +0.110 A 
ATOM     12  C   UNL     1       2.189   4.849  -1.110  0.00  0.00    +0.062 A 
ATOM     13  C   UNL     1       3.480   5.238  -1.363  0.00  0.00    +0.197 A 
ATOM     14  O   UNL     1       4.223   5.590  -0.228  0.00  0.00    -0.287 OA
ATOM     15  C   UNL     1       3.770   5.854  -2.577  0.00  0.00    +0.043 A 
ENDBRANCH   2   4
ENDBRANCH   1   2
BRANCH   1  16
ATOM     16  N   UNL     1       3.173   5.745  -6.993  0.00  0.00    -0.217 NA
BRANCH  16  17
ATOM     17  C   UNL     1       2.165   4.768  -7.336  0.00  0.00    +0.064 C 
ATOM     18  C   UNL     1       0.809   5.453  -7.416  0.00  0.00    +0.018 C 
ATOM     19  C   UNL     1       2.037   3.693  -6.289  0.00  0.00    +0.018 C 
BRANCH  17  20
ATOM     20  C   UNL     1       2.429   4.128  -8.681  0.00  0.00    +0.042 C 
BRANCH  20  24
ATOM     21  C   UNL     1       1.328   6.169 -12.157  0.00  0.00    +0.139 A 
ATOM     22  C   UNL     1       2.629   6.275 -11.681  0.00  0.00    +0.037 A 
ATOM     23  C   UNL     1       2.878   5.881 -10.373  0.00  0.00    -0.001 A 
ATOM     24  C   UNL     1       1.967   5.015  -9.780  0.00  0.00    -0.021 A 
ATOM     25  C   UNL     1       0.789   4.674 -10.411  0.00  0.00    -0.001 A 
ATOM     26  C   UNL     1       0.408   5.310 -11.582  0.00  0.00    +0.037 A 
BRANCH  21  28
ATOM     27  C   UNL     1       0.601   7.617 -13.499  0.00  0.00    +0.252 C 
ATOM     28  O   UNL     1       0.842   7.095 -13.085  0.00  0.00    -0.471 OA
ENDBRANCH  21  28
ENDBRANCH  20  24
ENDBRANCH  17  20
ENDBRANCH  16  17
ENDBRANCH   1  16
TORSDOF 7
ENDMDL
MODEL 9
REMARK VINA RESULT:      -7.8      3.112      8.871
REMARK  Name = 
REMARK  7 active torsions:
REMARK  status: ('A' for Active; 'I' for Inactive)
REMARK    1  A    between atoms: O_2  and  C_3
REMARK    2  A    between atoms: C_6  and  C_7
REMARK    3  A    between atoms: C_7  and  C_8
REMARK    4  A    between atoms: C_8  and  N_11
REMARK    5  A    between atoms: N_11  and  C_12
REMARK    6  A    between atoms: C_12  and  C_13
REMARK    7  A    between atoms: C_13  and  C_15
REMARK                            x       y       z     vdW  Elec       q    Type
REMARK                         _______ _______ _______ _____ _____    ______ ____
ROOT
ATOM      1  C   UNL     1       3.103   5.592  -8.850  0.00  0.00    +0.126 C 
ENDROOT
BRANCH   1   2
ATOM      2  C   UNL     1       4.030   5.632 -10.211  0.00  0.00    +0.195 C 
ATOM      3  O   UNL     1       4.372   7.111 -10.094  0.00  0.00    -0.217 OA
BRANCH   2   4
ATOM      4  C   UNL     1       2.757   5.888 -11.175  0.00  0.00    +0.048 A 
ATOM      5  C   UNL     1       3.045   5.807 -12.519  0.00  0.00    +0.153 A 
ATOM      6  O   UNL     1       4.300   5.531 -13.019  0.00  0.00    -0.464 OA
ATOM      7  C   UNL     1       4.789   5.953 -14.263  0.00  0.00    +0.292 C 
ATOM      8  C   UNL     1       3.742   6.431 -15.184  0.00  0.00    +0.290 C 
ATOM      9  N   UNL     1       2.383   6.325 -14.807  0.00  0.00    -0.173 NA
ATOM     10  O   UNL     1       4.126   7.081 -16.203  0.00  0.00    -0.269 OA
ATOM     11  C   UNL     1       2.066   6.195 -13.416  0.00  0.00    +0.110 A 
ATOM     12  C   UNL     1       0.839   6.602 -12.908  0.00  0.00    +0.062 A 
ATOM     13  C   UNL     1       0.589   6.676 -11.561  0.00  0.00    +0.197 A 
ATOM     14  O   UNL     1      -0.315   7.678 -11.183  0.00  0.00    -0.287 OA
ATOM     15  C   UNL     1       1.591   6.300 -10.671  0.00  0.00    +0.043 A 
ENDBRANCH   2   4
ENDBRANCH   1   2
BRANCH   1  16
ATOM     16  N   UNL     1       3.876   5.723  -7.698  0.00  0.00    -0.217 NA
BRANCH  16  17
ATOM     17  C   UNL     1       3.046   6.034  -6.557  0.00  0.00    +0.064 C 
ATOM     18  C   UNL     1       3.828   6.916  -5.594  0.00  0.00    +0.018 C 
ATOM     19  C   UNL     1       2.657   4.802  -5.785  0.00  0.00    +0.018 C 
BRANCH  17  20
ATOM     20  C   UNL     1       1.798   6.792  -6.953  0.00  0.00    +0.042 C 
BRANCH  20  24
ATOM     21  C   UNL     1      -1.784   6.002  -4.953  0.00  0.00    +0.139 A 
ATOM     22  C   UNL     1      -0.912   6.959  -4.448  0.00  0.00    +0.037 A 
ATOM     23  C   UNL     1       0.394   6.963  -4.919  0.00  0.00    -0.001 A 
ATOM     24  C   UNL     1       0.636   6.346  -6.141  0.00  0.00    -0.021 A 
ATOM     25  C   UNL     1      -0.349   5.633  -6.791  0.00  0.00    -0.001 A 
ATOM     26  C   UNL     1      -1.561   5.379  -6.168  0.00  0.00    +0.037 A 
BRANCH  21  28
ATOM     27  C   UNL     1      -3.298   5.268  -3.689  0.00  0.00    +0.252 C 
ATOM     28  O   UNL     1      -2.790   5.471  -4.140  0.00  0.00    -0.471 OA
ENDBRANCH  21  28
ENDBRANCH  20  24
ENDBRANCH  17  20
ENDBRANCH  16  17
ENDBRANCH   1  16
TORSDOF 7
ENDMDL
