MODEL 1
REMARK VINA RESULT:      -7.9      0.000      0.000
REMARK  Name = 
REMARK  4 active torsions:
REMARK  status: ('A' for Active; 'I' for Inactive)
REMARK    1  A    between atoms: O_2  and  C_3
REMARK    2  A    between atoms: C_8  and  O_9
REMARK    3  A    between atoms: C_15  and  C_16
REMARK    4  A    between atoms: C_16  and  C_17
REMARK                            x       y       z     vdW  Elec       q    Type
REMARK                         _______ _______ _______ _____ _____    ______ ____
ROOT
ATOM      1  C   UNL     1      -2.313   5.830  -3.398  0.00  0.00    +0.172 A 
ATOM      2  C   UNL     1      -1.298   5.495  -2.533  0.00  0.00    +0.172 A 
ATOM      3  C   UNL     1      -0.056   5.276  -3.098  0.00  0.00    +0.037 A 
ATOM      4  C   UNL     1       0.023   5.065  -4.470  0.00  0.00    -0.008 A 
ATOM      5  C   UNL     1       1.573   4.976  -4.890  0.00  0.00    +0.087 C 
ATOM      6  N   UNL     1       1.272   4.449  -6.342  0.00  0.00    -0.269 NA
ATOM      7  C   UNL     1       0.587   5.407  -7.101  0.00  0.00    +0.077 C 
ATOM      8  C   UNL     1      -0.870   5.461  -6.767  0.00  0.00    +0.044 C 
ATOM      9  C   UNL     1       2.640   4.387  -6.862  0.00  0.00    +0.080 C 
ATOM     10  C   UNL     1       2.933   5.877  -7.468  0.00  0.00    +0.074 C 
ATOM     11  C   UNL     1       3.001   6.541  -6.006  0.00  0.00    +0.153 C 
ATOM     12  O   UNL     1       3.691   7.531  -5.916  0.00  0.00    -0.296 OA
ATOM     13  C   UNL     1       1.654   6.556  -5.346  0.00  0.00    +0.085 C 
ATOM     14  C   UNL     1      -0.871   5.652  -5.279  0.00  0.00    -0.020 A 
ATOM     15  C   UNL     1      -2.159   5.792  -4.764  0.00  0.00    +0.036 A 
ENDROOT
BRANCH   1  17
ATOM     16  C   UNL     1      -4.041   6.536  -2.627  0.00  0.00    +0.253 C 
ATOM     17  O   UNL     1      -3.420   6.492  -2.877  0.00  0.00    -0.468 OA
ENDBRANCH   1  17
BRANCH   2  18
ATOM     18  O   UNL     1      -1.453   5.358  -1.181  0.00  0.00    -0.468 OA
ATOM     19  C   UNL     1      -1.134   6.295  -0.198  0.00  0.00    +0.253 C 
ENDBRANCH   2  18
BRANCH  10  20
ATOM     20  C   UNL     1       4.546   5.622  -7.513  0.00  0.00    +0.009 C 
BRANCH  20  21
ATOM     21  C   UNL     1       4.776   5.560  -9.014  0.00  0.00    +0.000 C 
ATOM     22  C   UNL     1       4.005   6.626  -9.741  0.00  0.00    +0.000 C 
ATOM     23  C   UNL     1       6.232   5.687  -9.375  0.00  0.00    +0.000 C 
ENDBRANCH  20  21
ENDBRANCH  10  20
TORSDOF 4
ENDMDL
MODEL 2
REMARK VINA RESULT:      -7.8      2.822      8.091
REMARK  Name = 
REMARK  4 active torsions:
REMARK  status: ('A' for Active; 'I' for Inactive)
REMARK    1  A    between atoms: O_2  and  C_3
REMARK    2  A    between atoms: C_8  and  O_9
REMARK    3  A    between atoms: C_15  and  C_16
REMARK    4  A    between atoms: C_16  and  C_17
REMARK                            x       y       z     vdW  Elec       q    Type
REMARK                         _______ _______ _______ _____ _____    ______ ____
ROOT
ATOM      1  C   UNL     1       4.779   5.638 -11.627  0.00  0.00    +0.172 A 
ATOM      2  C   UNL     1       5.579   5.651 -10.508  0.00  0.00    +0.172 A 
ATOM      3  C   UNL     1       4.937   5.805  -9.294  0.00  0.00    +0.037 A 
ATOM      4  C   UNL     1       3.627   6.272  -9.289  0.00  0.00    -0.008 A 
ATOM      5  C   UNL     1       3.071   6.229  -7.781  0.00  0.00    +0.087 C 
ATOM      6  N   UNL     1       1.782   7.070  -8.106  0.00  0.00    -0.269 NA
ATOM      7  C   UNL     1       0.934   6.386  -8.988  0.00  0.00    +0.077 C 
ATOM      8  C   UNL     1       1.404   6.468 -10.406  0.00  0.00    +0.044 C 
ATOM      9  C   UNL     1       1.142   7.045  -6.789  0.00  0.00    +0.080 C 
ATOM     10  C   UNL     1       0.242   5.680  -6.778  0.00  0.00    +0.074 C 
ATOM     11  C   UNL     1       1.540   4.736  -6.703  0.00  0.00    +0.153 C 
ATOM     12  O   UNL     1       1.372   3.662  -6.170  0.00  0.00    -0.296 OA
ATOM     13  C   UNL     1       2.324   4.775  -7.982  0.00  0.00    +0.085 C 
ATOM     14  C   UNL     1       2.822   5.986 -10.323  0.00  0.00    -0.020 A 
ATOM     15  C   UNL     1       3.436   5.925 -11.573  0.00  0.00    +0.036 A 
ENDROOT
BRANCH   1  17
ATOM     16  C   UNL     1       5.335   4.947 -13.441  0.00  0.00    +0.253 C 
ATOM     17  O   UNL     1       5.282   5.044 -12.780  0.00  0.00    -0.468 OA
ENDBRANCH   1  17
BRANCH   2  18
ATOM     18  O   UNL     1       6.942   5.536 -10.536  0.00  0.00    -0.468 OA
ATOM     19  C   UNL     1       7.860   6.501 -10.952  0.00  0.00    +0.253 C 
ENDBRANCH   2  18
BRANCH  10  20
ATOM     20  C   UNL     1       0.076   5.715  -5.154  0.00  0.00    +0.009 C 
BRANCH  20  21
ATOM     21  C   UNL     1      -1.432   5.865  -5.031  0.00  0.00    +0.000 C 
ATOM     22  C   UNL     1      -1.823   7.259  -4.629  0.00  0.00    +0.000 C 
ATOM     23  C   UNL     1      -2.147   5.511  -6.308  0.00  0.00    +0.000 C 
ENDBRANCH  20  21
ENDBRANCH  10  20
TORSDOF 4
ENDMDL
MODEL 3
REMARK VINA RESULT:      -7.7      3.129      8.794
REMARK  Name = 
REMARK  4 active torsions:
REMARK  status: ('A' for Active; 'I' for Inactive)
REMARK    1  A    between atoms: O_2  and  C_3
REMARK    2  A    between atoms: C_8  and  O_9
REMARK    3  A    between atoms: C_15  and  C_16
REMARK    4  A    between atoms: C_16  and  C_17
REMARK                            x       y       z     vdW  Elec       q    Type
REMARK                         _______ _______ _______ _____ _____    ______ ____
ROOT
ATOM      1  C   UNL     1       6.592   5.537 -11.821  0.00  0.00    +0.172 A 
ATOM      2  C   UNL     1       5.365   5.582 -12.440  0.00  0.00    +0.172 A 
ATOM      3  C   UNL     1       4.259   5.622 -11.612  0.00  0.00    +0.037 A 
ATOM      4  C   UNL     1       4.416   5.273 -10.275  0.00  0.00    -0.008 A 
ATOM      5  C   UNL     1       3.028   5.534  -9.507  0.00  0.00    +0.087 C 
ATOM      6  N   UNL     1       3.470   4.775  -8.202  0.00  0.00    -0.269 NA
ATOM      7  C   UNL     1       4.539   5.426  -7.570  0.00  0.00    +0.077 C 
ATOM      8  C   UNL     1       5.848   5.144  -8.235  0.00  0.00    +0.044 C 
ATOM      9  C   UNL     1       2.281   5.004  -7.378  0.00  0.00    +0.080 C 
ATOM     10  C   UNL     1       2.547   6.433  -6.632  0.00  0.00    +0.074 C 
ATOM     11  C   UNL     1       2.359   7.265  -7.994  0.00  0.00    +0.153 C 
ATOM     12  O   UNL     1       1.968   8.402  -7.859  0.00  0.00    -0.296 OA
ATOM     13  C   UNL     1       3.487   7.014  -8.952  0.00  0.00    +0.085 C 
ATOM     14  C   UNL     1       5.588   5.509  -9.666  0.00  0.00    -0.020 A 
ATOM     15  C   UNL     1       6.725   5.375 -10.463  0.00  0.00    +0.036 A 
ENDROOT
BRANCH   1  17
ATOM     16  C   UNL     1       8.355   6.073 -12.648  0.00  0.00    +0.253 C 
ATOM     17  O   UNL     1       7.703   5.952 -12.549  0.00  0.00    -0.468 OA
ENDBRANCH   1  17
BRANCH   2  18
ATOM     18  O   UNL     1       5.186   5.575 -13.796  0.00  0.00    -0.468 OA
ATOM     19  C   UNL     1       4.066   6.019 -14.500  0.00  0.00    +0.253 C 
ENDBRANCH   2  18
BRANCH  10  20
ATOM     20  C   UNL     1       0.974   6.597  -6.223  0.00  0.00    +0.009 C 
BRANCH  20  21
ATOM     21  C   UNL     1       1.085   6.648  -4.708  0.00  0.00    +0.000 C 
ATOM     22  C   UNL     1       0.547   5.399  -4.066  0.00  0.00    +0.000 C 
ATOM     23  C   UNL     1       2.502   6.857  -4.244  0.00  0.00    +0.000 C 
ENDBRANCH  20  21
ENDBRANCH  10  20
TORSDOF 4
ENDMDL
MODEL 4
REMARK VINA RESULT:      -7.6      1.717      3.052
REMARK  Name = 
REMARK  4 active torsions:
REMARK  status: ('A' for Active; 'I' for Inactive)
REMARK    1  A    between atoms: O_2  and  C_3
REMARK    2  A    between atoms: C_8  and  O_9
REMARK    3  A    between atoms: C_15  and  C_16
REMARK    4  A    between atoms: C_16  and  C_17
REMARK                            x       y       z     vdW  Elec       q    Type
REMARK                         _______ _______ _______ _____ _____    ______ ____
ROOT
ATOM      1  C   UNL     1       0.175   5.944  -3.113  0.00  0.00    +0.172 A 
ATOM      2  C   UNL     1      -0.763   5.748  -4.099  0.00  0.00    +0.172 A 
ATOM      3  C   UNL     1      -0.317   5.853  -5.403  0.00  0.00    +0.037 A 
ATOM      4  C   UNL     1       0.907   6.468  -5.640  0.00  0.00    -0.008 A 
ATOM      5  C   UNL     1       1.255   6.337  -7.204  0.00  0.00    +0.087 C 
ATOM      6  N   UNL     1       2.455   7.353  -7.144  0.00  0.00    -0.269 NA
ATOM      7  C   UNL     1       3.496   6.867  -6.341  0.00  0.00    +0.077 C 
ATOM      8  C   UNL     1       3.216   7.037  -4.882  0.00  0.00    +0.044 C 
ATOM      9  C   UNL     1       2.908   7.270  -8.533  0.00  0.00    +0.080 C 
ATOM     10  C   UNL     1       3.969   6.027  -8.562  0.00  0.00    +0.074 C 
ATOM     11  C   UNL     1       2.808   4.933  -8.366  0.00  0.00    +0.153 C 
ATOM     12  O   UNL     1       3.041   3.838  -8.826  0.00  0.00    -0.296 OA
ATOM     13  C   UNL     1       2.206   5.010  -6.994  0.00  0.00    +0.085 C 
ATOM     14  C   UNL     1       1.875   6.385  -4.715  0.00  0.00    -0.020 A 
ATOM     15  C   UNL     1       1.450   6.380  -3.387  0.00  0.00    +0.036 A 
ENDROOT
BRANCH   1  17
ATOM     16  C   UNL     1       0.005   5.345  -1.192  0.00  0.00    +0.253 C 
ATOM     17  O   UNL     1      -0.085   5.415  -1.853  0.00  0.00    -0.468 OA
ENDBRANCH   1  17
BRANCH   2  18
ATOM     18  O   UNL     1      -2.083   5.477  -3.861  0.00  0.00    -0.468 OA
ATOM     19  C   UNL     1      -3.049   6.358  -3.373  0.00  0.00    +0.253 C 
ENDBRANCH   2  18
BRANCH  10  20
ATOM     20  C   UNL     1       3.907   5.915 -10.191  0.00  0.00    +0.009 C 
BRANCH  20  21
ATOM     21  C   UNL     1       5.382   6.046 -10.534  0.00  0.00    +0.000 C 
ATOM     22  C   UNL     1       5.724   7.432 -11.007  0.00  0.00    +0.000 C 
ATOM     23  C   UNL     1       6.274   5.699  -9.372  0.00  0.00    +0.000 C 
ENDBRANCH  20  21
ENDBRANCH  10  20
TORSDOF 4
ENDMDL
MODEL 5
REMARK VINA RESULT:      -7.4      2.032      2.762
REMARK  Name = 
REMARK  4 active torsions:
REMARK  status: ('A' for Active; 'I' for Inactive)
REMARK    1  A    between atoms: O_2  and  C_3
REMARK    2  A    between atoms: C_8  and  O_9
REMARK    3  A    between atoms: C_15  and  C_16
REMARK    4  A    between atoms: C_16  and  C_17
REMARK                            x       y       z     vdW  Elec       q    Type
REMARK                         _______ _______ _______ _____ _____    ______ ____
ROOT
ATOM      1  C   UNL     1      -0.258   5.538  -2.233  0.00  0.00    +0.172 A 
ATOM      2  C   UNL     1       1.111   5.414  -2.290  0.00  0.00    +0.172 A 
ATOM      3  C   UNL     1       1.678   5.425  -3.550  0.00  0.00    +0.037 A 
ATOM      4  C   UNL     1       0.856   5.213  -4.651  0.00  0.00    -0.008 A 
ATOM      5  C   UNL     1       1.725   5.412  -5.990  0.00  0.00    +0.087 C 
ATOM      6  N   UNL     1       0.620   4.817  -6.938  0.00  0.00    -0.269 NA
ATOM      7  C   UNL     1      -0.530   5.618  -6.947  0.00  0.00    +0.077 C 
ATOM      8  C   UNL     1      -1.383   5.401  -5.738  0.00  0.00    +0.044 C 
ATOM      9  C   UNL     1       1.286   5.007  -8.228  0.00  0.00    +0.080 C 
ATOM     10  C   UNL     1       0.874   6.517  -8.703  0.00  0.00    +0.074 C 
ATOM     11  C   UNL     1       1.795   7.202  -7.578  0.00  0.00    +0.153 C 
ATOM     12  O   UNL     1       2.211   8.306  -7.848  0.00  0.00    -0.296 OA
ATOM     13  C   UNL     1       1.244   6.972  -6.201  0.00  0.00    +0.085 C 
ATOM     14  C   UNL     1      -0.425   5.610  -4.603  0.00  0.00    -0.020 A 
ATOM     15  C   UNL     1      -1.046   5.511  -3.359  0.00  0.00    +0.036 A 
ENDROOT
BRANCH   1  17
ATOM     16  C   UNL     1      -1.325   6.127  -0.623  0.00  0.00    +0.253 C 
ATOM     17  O   UNL     1      -0.821   5.987  -1.043  0.00  0.00    -0.468 OA
ENDBRANCH   1  17
BRANCH   2  18
ATOM     18  O   UNL     1       1.916   5.269  -1.194  0.00  0.00    -0.468 OA
ATOM     19  C   UNL     1       3.263   4.907  -1.181  0.00  0.00    +0.253 C 
ENDBRANCH   2  18
BRANCH  10  20
ATOM     20  C   UNL     1       2.064   6.570  -9.821  0.00  0.00    +0.009 C 
BRANCH  20  21
ATOM     21  C   UNL     1       1.287   6.189 -11.071  0.00  0.00    +0.000 C 
ATOM     22  C   UNL     1       0.047   7.023 -11.233  0.00  0.00    +0.000 C 
ATOM     23  C   UNL     1       2.119   6.312 -12.320  0.00  0.00    +0.000 C 
ENDBRANCH  20  21
ENDBRANCH  10  20
TORSDOF 4
ENDMDL
MODEL 6
REMARK VINA RESULT:      -7.2      3.786      8.770
REMARK  Name = 
REMARK  4 active torsions:
REMARK  status: ('A' for Active; 'I' for Inactive)
REMARK    1  A    between atoms: O_2  and  C_3
REMARK    2  A    between atoms: C_8  and  O_9
REMARK    3  A    between atoms: C_15  and  C_16
REMARK    4  A    between atoms: C_16  and  C_17
REMARK                            x       y       z     vdW  Elec       q    Type
REMARK                         _______ _______ _______ _____ _____    ______ ____
ROOT
ATOM      1  C   UNL     1       4.724   5.889 -13.552  0.00  0.00    +0.172 A 
ATOM      2  C   UNL     1       3.355   5.764 -13.505  0.00  0.00    +0.172 A 
ATOM      3  C   UNL     1       2.787   5.688 -12.247  0.00  0.00    +0.037 A 
ATOM      4  C   UNL     1       3.608   5.396 -11.163  0.00  0.00    -0.008 A 
ATOM      5  C   UNL     1       2.738   5.502  -9.814  0.00  0.00    +0.087 C 
ATOM      6  N   UNL     1       3.842   4.839  -8.910  0.00  0.00    -0.269 NA
ATOM      7  C   UNL     1       4.994   5.634  -8.844  0.00  0.00    +0.077 C 
ATOM      8  C   UNL     1       5.847   5.501 -10.065  0.00  0.00    +0.044 C 
ATOM      9  C   UNL     1       3.176   4.939  -7.610  0.00  0.00    +0.080 C 
ATOM     10  C   UNL     1       3.591   6.410  -7.030  0.00  0.00    +0.074 C 
ATOM     11  C   UNL     1       2.672   7.176  -8.104  0.00  0.00    +0.153 C 
ATOM     12  O   UNL     1       2.258   8.258  -7.756  0.00  0.00    -0.296 OA
ATOM     13  C   UNL     1       3.223   7.042  -9.493  0.00  0.00    +0.085 C 
ATOM     14  C   UNL     1       4.890   5.792 -11.182  0.00  0.00    -0.020 A 
ATOM     15  C   UNL     1       5.512   5.780 -12.430  0.00  0.00    +0.036 A 
ENDROOT
BRANCH   1  17
ATOM     16  C   UNL     1       5.730   6.785 -15.056  0.00  0.00    +0.253 C 
ATOM     17  O   UNL     1       5.290   6.419 -14.707  0.00  0.00    -0.468 OA
ENDBRANCH   1  17
BRANCH   2  18
ATOM     18  O   UNL     1       2.551   5.699 -14.609  0.00  0.00    -0.468 OA
ATOM     19  C   UNL     1       1.324   6.337 -14.794  0.00  0.00    +0.253 C 
ENDBRANCH   2  18
BRANCH  10  20
ATOM     20  C   UNL     1       2.400   6.386  -5.911  0.00  0.00    +0.009 C 
BRANCH  20  21
ATOM     21  C   UNL     1       3.221   6.402  -4.632  0.00  0.00    +0.000 C 
ATOM     22  C   UNL     1       4.417   7.304  -4.747  0.00  0.00    +0.000 C 
ATOM     23  C   UNL     1       2.409   6.825  -3.437  0.00  0.00    +0.000 C 
ENDBRANCH  20  21
ENDBRANCH  10  20
TORSDOF 4
ENDMDL
MODEL 7
REMARK VINA RESULT:      -7.2      3.489      6.435
REMARK  Name = 
REMARK  4 active torsions:
REMARK  status: ('A' for Active; 'I' for Inactive)
REMARK    1  A    between atoms: O_2  and  C_3
REMARK    2  A    between atoms: C_8  and  O_9
REMARK    3  A    between atoms: C_15  and  C_16
REMARK    4  A    between atoms: C_16  and  C_17
REMARK                            x       y       z     vdW  Elec       q    Type
REMARK                         _______ _______ _______ _____ _____    ______ ____
ROOT
ATOM      1  C   UNL     1       0.569   5.625  -9.630  0.00  0.00    +0.172 A 
ATOM      2  C   UNL     1       1.740   6.320  -9.824  0.00  0.00    +0.172 A 
ATOM      3  C   UNL     1       2.460   6.643  -8.689  0.00  0.00    +0.037 A 
ATOM      4  C   UNL     1       1.824   6.569  -7.455  0.00  0.00    -0.008 A 
ATOM      5  C   UNL     1       2.905   6.856  -6.300  0.00  0.00    +0.087 C 
ATOM      6  N   UNL     1       1.828   6.997  -5.162  0.00  0.00    -0.269 NA
ATOM      7  C   UNL     1       1.151   5.789  -4.946  0.00  0.00    +0.077 C 
ATOM      8  C   UNL     1       0.098   5.536  -5.977  0.00  0.00    +0.044 C 
ATOM      9  C   UNL     1       2.717   7.202  -4.016  0.00  0.00    +0.080 C 
ATOM     10  C   UNL     1       3.077   5.700  -3.482  0.00  0.00    +0.074 C 
ATOM     11  C   UNL     1       4.000   5.385  -4.760  0.00  0.00    +0.153 C 
ATOM     12  O   UNL     1       4.888   4.584  -4.575  0.00  0.00    -0.296 OA
ATOM     13  C   UNL     1       3.182   5.259  -6.011  0.00  0.00    +0.085 C 
ATOM     14  C   UNL     1       0.849   5.667  -7.270  0.00  0.00    -0.020 A 
ATOM     15  C   UNL     1       0.046   5.401  -8.378  0.00  0.00    +0.036 A 
ENDROOT
BRANCH   1  17
ATOM     16  C   UNL     1      -0.106   4.334 -11.029  0.00  0.00    +0.253 C 
ATOM     17  O   UNL     1       0.061   4.894 -10.699  0.00  0.00    -0.468 OA
ENDBRANCH   1  17
BRANCH   2  18
ATOM     18  O   UNL     1       2.209   6.709 -11.049  0.00  0.00    -0.468 OA
ATOM     19  C   UNL     1       3.255   6.133 -11.772  0.00  0.00    +0.253 C 
ENDBRANCH   2  18
BRANCH  10  20
ATOM     20  C   UNL     1       4.344   6.237  -2.601  0.00  0.00    +0.009 C 
BRANCH  20  21
ATOM     21  C   UNL     1       3.898   5.841  -1.203  0.00  0.00    +0.000 C 
ATOM     22  C   UNL     1       3.956   4.353  -0.999  0.00  0.00    +0.000 C 
ATOM     23  C   UNL     1       4.717   6.508  -0.131  0.00  0.00    +0.000 C 
ENDBRANCH  20  21
ENDBRANCH  10  20
TORSDOF 4
ENDMDL
MODEL 8
REMARK VINA RESULT:      -7.0      3.014      4.647
REMARK  Name = 
REMARK  4 active torsions:
REMARK  status: ('A' for Active; 'I' for Inactive)
REMARK    1  A    between atoms: O_2  and  C_3
REMARK    2  A    between atoms: C_8  and  O_9
REMARK    3  A    between atoms: C_15  and  C_16
REMARK    4  A    between atoms: C_16  and  C_17
REMARK                            x       y       z     vdW  Elec       q    Type
REMARK                         _______ _______ _______ _____ _____    ______ ____
ROOT
ATOM      1  C   UNL     1       3.606   5.474  -2.726  0.00  0.00    +0.172 A 
ATOM      2  C   UNL     1       2.540   6.338  -2.628  0.00  0.00    +0.172 A 
ATOM      3  C   UNL     1       1.992   6.776  -3.819  0.00  0.00    +0.037 A 
ATOM      4  C   UNL     1       2.727   6.617  -4.989  0.00  0.00    -0.008 A 
ATOM      5  C   UNL     1       1.820   7.074  -6.235  0.00  0.00    +0.087 C 
ATOM      6  N   UNL     1       3.012   7.059  -7.261  0.00  0.00    -0.269 NA
ATOM      7  C   UNL     1       3.516   5.763  -7.439  0.00  0.00    +0.077 C 
ATOM      8  C   UNL     1       4.413   5.343  -6.318  0.00  0.00    +0.044 C 
ATOM      9  C   UNL     1       2.281   7.406  -8.481  0.00  0.00    +0.080 C 
ATOM     10  C   UNL     1       1.751   5.981  -9.082  0.00  0.00    +0.074 C 
ATOM     11  C   UNL     1       0.671   5.801  -7.906  0.00  0.00    +0.153 C 
ATOM     12  O   UNL     1      -0.305   5.147  -8.192  0.00  0.00    -0.296 OA
ATOM     13  C   UNL     1       1.334   5.541  -6.585  0.00  0.00    +0.085 C 
ATOM     14  C   UNL     1       3.568   5.577  -5.101  0.00  0.00    -0.020 A 
ATOM     15  C   UNL     1       4.209   5.183  -3.927  0.00  0.00    +0.036 A 
ENDROOT
BRANCH   1  17
ATOM     16  C   UNL     1       4.268   4.431  -1.129  0.00  0.00    +0.253 C 
ATOM     17  O   UNL     1       3.890   4.665  -1.631  0.00  0.00    -0.468 OA
ENDBRANCH   1  17
BRANCH   2  18
ATOM     18  O   UNL     1       2.018   6.784  -1.446  0.00  0.00    -0.468 OA
ATOM     19  C   UNL     1       0.896   6.289  -0.781  0.00  0.00    +0.253 C 
ENDBRANCH   2  18
BRANCH  10  20
ATOM     20  C   UNL     1       0.673   6.713 -10.067  0.00  0.00    +0.009 C 
BRANCH  20  21
ATOM     21  C   UNL     1       1.000   6.037 -11.388  0.00  0.00    +0.000 C 
ATOM     22  C   UNL     1       0.201   4.778 -11.584  0.00  0.00    +0.000 C 
ATOM     23  C   UNL     1       0.769   6.943 -12.568  0.00  0.00    +0.000 C 
ENDBRANCH  20  21
ENDBRANCH  10  20
TORSDOF 4
ENDMDL
MODEL 9
REMARK VINA RESULT:      -6.9      4.338      7.764
REMARK  Name = 
REMARK  4 active torsions:
REMARK  status: ('A' for Active; 'I' for Inactive)
REMARK    1  A    between atoms: O_2  and  C_3
REMARK    2  A    between atoms: C_8  and  O_9
REMARK    3  A    between atoms: C_15  and  C_16
REMARK    4  A    between atoms: C_16  and  C_17
REMARK                            x       y       z     vdW  Elec       q    Type
REMARK                         _______ _______ _______ _____ _____    ______ ____
ROOT
ATOM      1  C   UNL     1       1.016   5.083 -12.938  0.00  0.00    +0.172 A 
ATOM      2  C   UNL     1       2.151   5.845 -13.091  0.00  0.00    +0.172 A 
ATOM      3  C   UNL     1       2.698   6.373 -11.936  0.00  0.00    +0.037 A 
ATOM      4  C   UNL     1       1.919   6.403 -10.785  0.00  0.00    -0.008 A 
ATOM      5  C   UNL     1       2.825   6.929  -9.564  0.00  0.00    +0.087 C 
ATOM      6  N   UNL     1       1.607   7.121  -8.587  0.00  0.00    -0.269 NA
ATOM      7  C   UNL     1       0.996   5.896  -8.286  0.00  0.00    +0.077 C 
ATOM      8  C   UNL     1       0.100   5.422  -9.386  0.00  0.00    +0.044 C 
ATOM      9  C   UNL     1       2.328   7.548  -7.387  0.00  0.00    +0.080 C 
ATOM     10  C   UNL     1       2.725   6.164  -6.613  0.00  0.00    +0.074 C 
ATOM     11  C   UNL     1       3.820   5.769  -7.721  0.00  0.00    +0.153 C 
ATOM     12  O   UNL     1       4.733   5.079  -7.327  0.00  0.00    -0.296 OA
ATOM     13  C   UNL     1       3.176   5.413  -9.028  0.00  0.00    +0.085 C 
ATOM     14  C   UNL     1       0.995   5.451 -10.589  0.00  0.00    -0.020 A 
ATOM     15  C   UNL     1       0.358   4.976 -11.735  0.00  0.00    +0.036 A 
ENDROOT
BRANCH   1  17
ATOM     16  C   UNL     1       0.607   3.569 -14.210  0.00  0.00    +0.253 C 
ATOM     17  O   UNL     1       0.699   4.178 -13.946  0.00  0.00    -0.468 OA
ENDBRANCH   1  17
BRANCH   2  18
ATOM     18  O   UNL     1       2.740   6.113 -14.295  0.00  0.00    -0.468 OA
ATOM     19  C   UNL     1       4.103   6.082 -14.591  0.00  0.00    +0.253 C 
ENDBRANCH   2  18
BRANCH  10  20
ATOM     20  C   UNL     1       3.830   6.918  -5.676  0.00  0.00    +0.009 C 
BRANCH  20  21
ATOM     21  C   UNL     1       3.398   6.442  -4.298  0.00  0.00    +0.000 C 
ATOM     22  C   UNL     1       4.218   5.272  -3.830  0.00  0.00    +0.000 C 
ATOM     23  C   UNL     1       3.478   7.533  -3.264  0.00  0.00    +0.000 C 
ENDBRANCH  20  21
ENDBRANCH  10  20
TORSDOF 4
ENDMDL
