MODEL 1
REMARK VINA RESULT:      -5.4      0.000      0.000
REMARK  Name = 
REMARK  5 active torsions:
REMARK  status: ('A' for Active; 'I' for Inactive)
REMARK    1  A    between atoms: C_2  and  S_3
REMARK    2  A    between atoms: S_3  and  C_6
REMARK    3  A    between atoms: C_6  and  C_7
REMARK    4  A    between atoms: C_7  and  N_8
REMARK    5  A    between atoms: C_13  and  N_14
REMARK                            x       y       z     vdW  Elec       q    Type
REMARK                         _______ _______ _______ _____ _____    ______ ____
ROOT
ATOM      1  N   UNL     1       1.355   5.685  -2.840  0.00  0.00    -0.256 N 
ATOM      2  C   UNL     1       2.417   6.241  -2.222  0.00  0.00    +0.378 A 
ATOM      3  C   UNL     1       3.091   6.983  -3.185  0.00  0.00    +0.195 A 
ATOM      4  N   UNL     1       2.341   6.901  -4.299  0.00  0.00    -0.223 NA
ATOM      5  C   UNL     1       1.412   5.939  -4.169  0.00  0.00    +0.125 A 
ATOM      6  C   UNL     1       0.918   4.961  -5.186  0.00  0.00    +0.072 C 
ENDROOT
BRANCH   2   7
ATOM      7  N   UNL     1       2.851   5.930  -0.892  0.00  0.00    +0.101 N 
ATOM      8  O   UNL     1       3.369   4.694  -0.603  0.00  0.00    -0.575 OA
ATOM      9  O   UNL     1       2.366   6.613   0.041  0.00  0.00    +0.043 OA
ENDBRANCH   2   7
BRANCH   1  10
ATOM     10  C   UNL     1       0.200   5.136  -2.137  0.00  0.00    +0.138 C 
BRANCH  10  11
ATOM     11  C   UNL     1      -0.763   6.271  -1.927  0.00  0.00    +0.175 C 
BRANCH  11  12
ATOM     12  S   UNL     1      -2.312   6.060  -2.729  0.00  0.00    -0.008 S 
ATOM     13  O   UNL     1      -2.704   4.622  -2.685  0.00  0.00    -0.173 OA
ATOM     14  O   UNL     1      -3.329   6.850  -1.940  0.00  0.00    -0.173 OA
BRANCH  12  16
ATOM     15  C   UNL     1      -1.726   7.976  -4.580  0.00  0.00    +0.027 C 
ATOM     16  C   UNL     1      -2.319   6.594  -4.409  0.00  0.00    +0.151 C 
ENDBRANCH  12  16
ENDBRANCH  11  12
ENDBRANCH  10  11
ENDBRANCH   1  10
TORSDOF 5
ENDMDL
MODEL 2
REMARK VINA RESULT:      -5.3      7.749      9.479
REMARK  Name = 
REMARK  5 active torsions:
REMARK  status: ('A' for Active; 'I' for Inactive)
REMARK    1  A    between atoms: C_2  and  S_3
REMARK    2  A    between atoms: S_3  and  C_6
REMARK    3  A    between atoms: C_6  and  C_7
REMARK    4  A    between atoms: C_7  and  N_8
REMARK    5  A    between atoms: C_13  and  N_14
REMARK                            x       y       z     vdW  Elec       q    Type
REMARK                         _______ _______ _______ _____ _____    ______ ____
ROOT
ATOM      1  N   UNL     1       2.851   6.335 -10.047  0.00  0.00    -0.256 N 
ATOM      2  C   UNL     1       2.358   6.374  -8.792  0.00  0.00    +0.378 A 
ATOM      3  C   UNL     1       1.300   5.472  -8.755  0.00  0.00    +0.195 A 
ATOM      4  N   UNL     1       1.283   4.881  -9.964  0.00  0.00    -0.223 NA
ATOM      5  C   UNL     1       2.066   5.552 -10.825  0.00  0.00    +0.125 A 
ATOM      6  C   UNL     1       1.844   5.842 -12.274  0.00  0.00    +0.072 C 
ENDROOT
BRANCH   2   7
ATOM      7  N   UNL     1       2.735   7.325  -7.789  0.00  0.00    +0.101 N 
ATOM      8  O   UNL     1       3.328   6.907  -6.625  0.00  0.00    -0.575 OA
ATOM      9  O   UNL     1       2.146   8.431  -7.800  0.00  0.00    +0.043 OA
ENDBRANCH   2   7
BRANCH   1  10
ATOM     10  C   UNL     1       4.169   6.842 -10.419  0.00  0.00    +0.138 C 
BRANCH  10  11
ATOM     11  C   UNL     1       5.075   5.650 -10.542  0.00  0.00    +0.175 C 
BRANCH  11  12
ATOM     12  S   UNL     1       6.785   6.049 -10.619  0.00  0.00    -0.008 S 
ATOM     13  O   UNL     1       6.945   7.511 -10.859  0.00  0.00    -0.173 OA
ATOM     14  O   UNL     1       7.374   5.725  -9.267  0.00  0.00    -0.173 OA
BRANCH  12  16
ATOM     15  C   UNL     1       8.987   5.819 -12.214  0.00  0.00    +0.027 C 
ATOM     16  C   UNL     1       7.660   5.173 -11.874  0.00  0.00    +0.151 C 
ENDBRANCH  12  16
ENDBRANCH  11  12
ENDBRANCH  10  11
ENDBRANCH   1  10
TORSDOF 5
ENDMDL
MODEL 3
REMARK VINA RESULT:      -5.3      2.662      3.510
REMARK  Name = 
REMARK  5 active torsions:
REMARK  status: ('A' for Active; 'I' for Inactive)
REMARK    1  A    between atoms: C_2  and  S_3
REMARK    2  A    between atoms: S_3  and  C_6
REMARK    3  A    between atoms: C_6  and  C_7
REMARK    4  A    between atoms: C_7  and  N_8
REMARK    5  A    between atoms: C_13  and  N_14
REMARK                            x       y       z     vdW  Elec       q    Type
REMARK                         _______ _______ _______ _____ _____    ______ ____
ROOT
ATOM      1  N   UNL     1       2.458   6.055  -4.070  0.00  0.00    -0.256 N 
ATOM      2  C   UNL     1       2.899   5.012  -4.804  0.00  0.00    +0.378 A 
ATOM      3  C   UNL     1       4.081   4.584  -4.212  0.00  0.00    +0.195 A 
ATOM      4  N   UNL     1       4.228   5.336  -3.106  0.00  0.00    -0.223 NA
ATOM      5  C   UNL     1       3.379   6.376  -3.131  0.00  0.00    +0.125 A 
ATOM      6  C   UNL     1       3.600   7.787  -2.687  0.00  0.00    +0.072 C 
ENDROOT
BRANCH   2   7
ATOM      7  N   UNL     1       2.346   4.598  -6.060  0.00  0.00    +0.101 N 
ATOM      8  O   UNL     1       1.401   3.606  -6.109  0.00  0.00    -0.575 OA
ATOM      9  O   UNL     1       3.025   4.834  -7.087  0.00  0.00    +0.043 OA
ENDBRANCH   2   7
BRANCH   1  10
ATOM     10  C   UNL     1       1.090   6.562  -4.118  0.00  0.00    +0.138 C 
BRANCH  10  11
ATOM     11  C   UNL     1       0.270   5.694  -3.206  0.00  0.00    +0.175 C 
BRANCH  11  12
ATOM     12  S   UNL     1      -1.465   5.832  -3.447  0.00  0.00    -0.008 S 
ATOM     13  O   UNL     1      -1.807   5.434  -4.842  0.00  0.00    -0.173 OA
ATOM     14  O   UNL     1      -2.121   4.852  -2.504  0.00  0.00    -0.173 OA
BRANCH  12  16
ATOM     15  C   UNL     1      -1.971   8.351  -4.364  0.00  0.00    +0.027 C 
ATOM     16  C   UNL     1      -2.095   7.451  -3.153  0.00  0.00    +0.151 C 
ENDBRANCH  12  16
ENDBRANCH  11  12
ENDBRANCH  10  11
ENDBRANCH   1  10
TORSDOF 5
ENDMDL
MODEL 4
REMARK VINA RESULT:      -5.2      9.683     11.503
REMARK  Name = 
REMARK  5 active torsions:
REMARK  status: ('A' for Active; 'I' for Inactive)
REMARK    1  A    between atoms: C_2  and  S_3
REMARK    2  A    between atoms: S_3  and  C_6
REMARK    3  A    between atoms: C_6  and  C_7
REMARK    4  A    between atoms: C_7  and  N_8
REMARK    5  A    between atoms: C_13  and  N_14
REMARK                            x       y       z     vdW  Elec       q    Type
REMARK                         _______ _______ _______ _____ _____    ______ ____
ROOT
ATOM      1  N   UNL     1       2.967   5.738 -11.696  0.00  0.00    -0.256 N 
ATOM      2  C   UNL     1       2.129   5.536 -12.734  0.00  0.00    +0.378 A 
ATOM      3  C   UNL     1       0.866   5.332 -12.188  0.00  0.00    +0.195 A 
ATOM      4  N   UNL     1       1.008   5.516 -10.863  0.00  0.00    -0.223 NA
ATOM      5  C   UNL     1       2.309   5.538 -10.529  0.00  0.00    +0.125 A 
ATOM      6  C   UNL     1       2.986   4.963  -9.326  0.00  0.00    +0.072 C 
ENDROOT
BRANCH   2   7
ATOM      7  N   UNL     1       2.534   5.358 -14.096  0.00  0.00    +0.101 N 
ATOM      8  O   UNL     1       2.386   6.376 -15.003  0.00  0.00    -0.575 OA
ATOM      9  O   UNL     1       2.610   4.181 -14.521  0.00  0.00    +0.043 OA
ENDBRANCH   2   7
BRANCH   1  10
ATOM     10  C   UNL     1       4.290   6.342 -11.825  0.00  0.00    +0.138 C 
BRANCH  10  11
ATOM     11  C   UNL     1       5.259   5.221 -12.074  0.00  0.00    +0.175 C 
BRANCH  11  12
ATOM     12  S   UNL     1       6.929   5.737 -12.250  0.00  0.00    -0.008 S 
ATOM     13  O   UNL     1       7.781   4.561 -12.587  0.00  0.00    -0.173 OA
ATOM     14  O   UNL     1       6.973   6.699 -13.413  0.00  0.00    -0.173 OA
BRANCH  12  16
ATOM     15  C   UNL     1       7.225   5.777  -9.538  0.00  0.00    +0.027 C 
ATOM     16  C   UNL     1       7.585   6.513 -10.811  0.00  0.00    +0.151 C 
ENDBRANCH  12  16
ENDBRANCH  11  12
ENDBRANCH  10  11
ENDBRANCH   1  10
TORSDOF 5
ENDMDL
MODEL 5
REMARK VINA RESULT:      -5.2      2.706      5.241
REMARK  Name = 
REMARK  5 active torsions:
REMARK  status: ('A' for Active; 'I' for Inactive)
REMARK    1  A    between atoms: C_2  and  S_3
REMARK    2  A    between atoms: S_3  and  C_6
REMARK    3  A    between atoms: C_6  and  C_7
REMARK    4  A    between atoms: C_7  and  N_8
REMARK    5  A    between atoms: C_13  and  N_14
REMARK                            x       y       z     vdW  Elec       q    Type
REMARK                         _______ _______ _______ _____ _____    ______ ____
ROOT
ATOM      1  N   UNL     1      -0.365   5.540  -5.182  0.00  0.00    -0.256 N 
ATOM      2  C   UNL     1      -1.679   5.571  -4.877  0.00  0.00    +0.378 A 
ATOM      3  C   UNL     1      -2.366   5.541  -6.085  0.00  0.00    +0.195 A 
ATOM      4  N   UNL     1      -1.424   5.402  -7.037  0.00  0.00    -0.223 NA
ATOM      5  C   UNL     1      -0.203   5.628  -6.524  0.00  0.00    +0.125 A 
ATOM      6  C   UNL     1       0.963   6.333  -7.138  0.00  0.00    +0.072 C 
ENDROOT
BRANCH   2   7
ATOM      7  N   UNL     1      -2.214   5.805  -3.569  0.00  0.00    +0.101 N 
ATOM      8  O   UNL     1      -2.681   4.761  -2.813  0.00  0.00    -0.575 OA
ATOM      9  O   UNL     1      -2.633   6.961  -3.322  0.00  0.00    +0.043 OA
ENDBRANCH   2   7
BRANCH   1  10
ATOM     10  C   UNL     1       0.684   5.194  -4.228  0.00  0.00    +0.138 C 
BRANCH  10  11
ATOM     11  C   UNL     1       1.194   6.484  -3.651  0.00  0.00    +0.175 C 
BRANCH  11  12
ATOM     12  S   UNL     1       2.925   6.508  -3.354  0.00  0.00    -0.008 S 
ATOM     13  O   UNL     1       3.207   7.285  -2.114  0.00  0.00    -0.173 OA
ATOM     14  O   UNL     1       3.352   5.078  -3.122  0.00  0.00    -0.173 OA
BRANCH  12  16
ATOM     15  C   UNL     1       5.200   7.739  -4.221  0.00  0.00    +0.027 C 
ATOM     16  C   UNL     1       3.861   7.200  -4.677  0.00  0.00    +0.151 C 
ENDBRANCH  12  16
ENDBRANCH  11  12
ENDBRANCH  10  11
ENDBRANCH   1  10
TORSDOF 5
ENDMDL
MODEL 6
REMARK VINA RESULT:      -5.1      9.560     10.775
REMARK  Name = 
REMARK  5 active torsions:
REMARK  status: ('A' for Active; 'I' for Inactive)
REMARK    1  A    between atoms: C_2  and  S_3
REMARK    2  A    between atoms: S_3  and  C_6
REMARK    3  A    between atoms: C_6  and  C_7
REMARK    4  A    between atoms: C_7  and  N_8
REMARK    5  A    between atoms: C_13  and  N_14
REMARK                            x       y       z     vdW  Elec       q    Type
REMARK                         _______ _______ _______ _____ _____    ______ ____
ROOT
ATOM      1  N   UNL     1       6.136   6.179 -12.142  0.00  0.00    -0.256 N 
ATOM      2  C   UNL     1       6.335   6.131 -13.476  0.00  0.00    +0.378 A 
ATOM      3  C   UNL     1       7.415   5.280 -13.683  0.00  0.00    +0.195 A 
ATOM      4  N   UNL     1       7.738   4.798 -12.468  0.00  0.00    -0.223 NA
ATOM      5  C   UNL     1       7.122   5.505 -11.506  0.00  0.00    +0.125 A 
ATOM      6  C   UNL     1       7.641   5.932 -10.170  0.00  0.00    +0.072 C 
ENDROOT
BRANCH   2   7
ATOM      7  N   UNL     1       5.684   6.970 -14.437  0.00  0.00    +0.101 N 
ATOM      8  O   UNL     1       4.574   6.525 -15.107  0.00  0.00    -0.575 OA
ATOM      9  O   UNL     1       6.366   7.891 -14.946  0.00  0.00    +0.043 OA
ENDBRANCH   2   7
BRANCH   1  10
ATOM     10  C   UNL     1       4.903   6.654 -11.522  0.00  0.00    +0.138 C 
BRANCH  10  11
ATOM     11  C   UNL     1       4.006   5.458 -11.362  0.00  0.00    +0.175 C 
BRANCH  11  12
ATOM     12  S   UNL     1       3.138   5.406  -9.835  0.00  0.00    -0.008 S 
ATOM     13  O   UNL     1       1.682   5.224 -10.096  0.00  0.00    -0.173 OA
ATOM     14  O   UNL     1       3.638   4.195  -9.084  0.00  0.00    -0.173 OA
BRANCH  12  16
ATOM     15  C   UNL     1       2.084   7.268  -8.143  0.00  0.00    +0.027 C 
ATOM     16  C   UNL     1       3.357   6.849  -8.847  0.00  0.00    +0.151 C 
ENDBRANCH  12  16
ENDBRANCH  11  12
ENDBRANCH  10  11
ENDBRANCH   1  10
TORSDOF 5
ENDMDL
MODEL 7
REMARK VINA RESULT:      -5.1      8.518      9.976
REMARK  Name = 
REMARK  5 active torsions:
REMARK  status: ('A' for Active; 'I' for Inactive)
REMARK    1  A    between atoms: C_2  and  S_3
REMARK    2  A    between atoms: S_3  and  C_6
REMARK    3  A    between atoms: C_6  and  C_7
REMARK    4  A    between atoms: C_7  and  N_8
REMARK    5  A    between atoms: C_13  and  N_14
REMARK                            x       y       z     vdW  Elec       q    Type
REMARK                         _______ _______ _______ _____ _____    ______ ____
ROOT
ATOM      1  N   UNL     1       2.895   6.295 -10.529  0.00  0.00    -0.256 N 
ATOM      2  C   UNL     1       2.290   6.167  -9.330  0.00  0.00    +0.378 A 
ATOM      3  C   UNL     1       1.160   5.383  -9.538  0.00  0.00    +0.195 A 
ATOM      4  N   UNL     1       1.207   5.014 -10.832  0.00  0.00    -0.223 NA
ATOM      5  C   UNL     1       2.123   5.740 -11.494  0.00  0.00    +0.125 A 
ATOM      6  C   UNL     1       2.065   6.297 -12.880  0.00  0.00    +0.072 C 
ENDROOT
BRANCH   2   7
ATOM      7  N   UNL     1       2.650   6.887  -8.145  0.00  0.00    +0.101 N 
ATOM      8  O   UNL     1       2.360   8.222  -8.029  0.00  0.00    -0.575 OA
ATOM      9  O   UNL     1       3.575   6.410  -7.446  0.00  0.00    +0.043 OA
ENDBRANCH   2   7
BRANCH   1  10
ATOM     10  C   UNL     1       4.280   6.721 -10.699  0.00  0.00    +0.138 C 
BRANCH  10  11
ATOM     11  C   UNL     1       5.094   5.480 -10.929  0.00  0.00    +0.175 C 
BRANCH  11  12
ATOM     12  S   UNL     1       5.965   5.459 -12.455  0.00  0.00    -0.008 S 
ATOM     13  O   UNL     1       7.243   4.709 -12.289  0.00  0.00    -0.173 OA
ATOM     14  O   UNL     1       5.104   4.712 -13.444  0.00  0.00    -0.173 OA
BRANCH  12  16
ATOM     15  C   UNL     1       6.468   7.082 -14.589  0.00  0.00    +0.027 C 
ATOM     16  C   UNL     1       6.332   7.065 -13.081  0.00  0.00    +0.151 C 
ENDBRANCH  12  16
ENDBRANCH  11  12
ENDBRANCH  10  11
ENDBRANCH   1  10
TORSDOF 5
ENDMDL
MODEL 8
REMARK VINA RESULT:      -5.1      3.502      5.612
REMARK  Name = 
REMARK  5 active torsions:
REMARK  status: ('A' for Active; 'I' for Inactive)
REMARK    1  A    between atoms: C_2  and  S_3
REMARK    2  A    between atoms: S_3  and  C_6
REMARK    3  A    between atoms: C_6  and  C_7
REMARK    4  A    between atoms: C_7  and  N_8
REMARK    5  A    between atoms: C_13  and  N_14
REMARK                            x       y       z     vdW  Elec       q    Type
REMARK                         _______ _______ _______ _____ _____    ______ ____
ROOT
ATOM      1  N   UNL     1      -0.273   6.385  -5.717  0.00  0.00    -0.256 N 
ATOM      2  C   UNL     1      -1.467   6.572  -5.118  0.00  0.00    +0.378 A 
ATOM      3  C   UNL     1      -2.387   5.802  -5.820  0.00  0.00    +0.195 A 
ATOM      4  N   UNL     1      -1.672   5.130  -6.741  0.00  0.00    -0.223 NA
ATOM      5  C   UNL     1      -0.433   5.641  -6.838  0.00  0.00    +0.125 A 
ATOM      6  C   UNL     1       0.410   5.848  -8.054  0.00  0.00    +0.072 C 
ENDROOT
BRANCH   2   7
ATOM      7  N   UNL     1      -1.732   7.544  -4.099  0.00  0.00    +0.101 N 
ATOM      8  O   UNL     1      -2.252   7.158  -2.890  0.00  0.00    -0.575 OA
ATOM      9  O   UNL     1      -1.889   8.731  -4.470  0.00  0.00    +0.043 OA
ENDBRANCH   2   7
BRANCH   1  10
ATOM     10  C   UNL     1       1.008   6.707  -5.097  0.00  0.00    +0.138 C 
BRANCH  10  11
ATOM     11  C   UNL     1       1.552   5.428  -4.526  0.00  0.00    +0.175 C 
BRANCH  11  12
ATOM     12  S   UNL     1       2.954   4.797  -5.375  0.00  0.00    -0.008 S 
ATOM     13  O   UNL     1       3.937   4.266  -4.388  0.00  0.00    -0.173 OA
ATOM     14  O   UNL     1       2.473   3.646  -6.226  0.00  0.00    -0.173 OA
BRANCH  12  16
ATOM     15  C   UNL     1       4.457   5.363  -7.581  0.00  0.00    +0.027 C 
ATOM     16  C   UNL     1       3.763   5.989  -6.390  0.00  0.00    +0.151 C 
ENDBRANCH  12  16
ENDBRANCH  11  12
ENDBRANCH  10  11
ENDBRANCH   1  10
TORSDOF 5
ENDMDL
MODEL 9
REMARK VINA RESULT:      -5.1      2.983      4.373
REMARK  Name = 
REMARK  5 active torsions:
REMARK  status: ('A' for Active; 'I' for Inactive)
REMARK    1  A    between atoms: C_2  and  S_3
REMARK    2  A    between atoms: S_3  and  C_6
REMARK    3  A    between atoms: C_6  and  C_7
REMARK    4  A    between atoms: C_7  and  N_8
REMARK    5  A    between atoms: C_13  and  N_14
REMARK                            x       y       z     vdW  Elec       q    Type
REMARK                         _______ _______ _______ _____ _____    ______ ____
ROOT
ATOM      1  N   UNL     1       1.007   5.798  -5.152  0.00  0.00    -0.256 N 
ATOM      2  C   UNL     1       0.648   5.081  -6.236  0.00  0.00    +0.378 A 
ATOM      3  C   UNL     1       1.680   4.180  -6.474  0.00  0.00    +0.195 A 
ATOM      4  N   UNL     1       2.552   4.350  -5.463  0.00  0.00    -0.223 NA
ATOM      5  C   UNL     1       2.270   5.476  -4.786  0.00  0.00    +0.125 A 
ATOM      6  C   UNL     1       3.206   6.481  -4.195  0.00  0.00    +0.072 C 
ENDROOT
BRANCH   2   7
ATOM      7  N   UNL     1      -0.477   5.365  -7.076  0.00  0.00    +0.101 N 
ATOM      8  O   UNL     1      -1.737   4.969  -6.706  0.00  0.00    -0.575 OA
ATOM      9  O   UNL     1      -0.246   5.577  -8.290  0.00  0.00    +0.043 OA
ENDBRANCH   2   7
BRANCH   1  10
ATOM     10  C   UNL     1       0.074   6.587  -4.353  0.00  0.00    +0.138 C 
BRANCH  10  11
ATOM     11  C   UNL     1      -0.505   5.664  -3.319  0.00  0.00    +0.175 C 
BRANCH  11  12
ATOM     12  S   UNL     1      -2.194   5.969  -2.943  0.00  0.00    -0.008 S 
ATOM     13  O   UNL     1      -2.833   6.695  -4.077  0.00  0.00    -0.173 OA
ATOM     14  O   UNL     1      -2.865   4.623  -2.807  0.00  0.00    -0.173 OA
BRANCH  12  16
ATOM     15  C   UNL     1      -1.610   6.382  -0.310  0.00  0.00    +0.027 C 
ATOM     16  C   UNL     1      -2.433   6.904  -1.469  0.00  0.00    +0.151 C 
ENDBRANCH  12  16
ENDBRANCH  11  12
ENDBRANCH  10  11
ENDBRANCH   1  10
TORSDOF 5
ENDMDL
