MODEL 1
REMARK VINA RESULT:      -8.9      0.000      0.000
REMARK  Name = 
REMARK  11 active torsions:
REMARK  status: ('A' for Active; 'I' for Inactive)
REMARK    1  A    between atoms: C_2  and  C_3
REMARK    2  A    between atoms: C_3  and  C_4
REMARK    3  A    between atoms: C_4  and  C_5
REMARK    4  A    between atoms: C_4  and  C_18
REMARK    5  A    between atoms: C_5  and  C_6
REMARK    6  A    between atoms: C_21  and  C_22
REMARK    7  A    between atoms: N_24  and  CA_25
REMARK    8  A    between atoms: CA_25  and  CB_26
REMARK    9  A    between atoms: CA_25  and  C_31
REMARK   10  A    between atoms: CB_26  and  CG_27
REMARK   11  A    between atoms: CG_27  and  CD_28
REMARK                            x       y       z     vdW  Elec       q    Type
REMARK                         _______ _______ _______ _____ _____    ______ ____
ROOT
ATOM      1  C   UNK A   0       0.499   4.699  -7.130  0.00  0.00    -0.021 A 
ATOM      2  C   UNK A   0       0.101   5.543  -8.167  0.00  0.00    -0.004 A 
ATOM      3  C   UNK A   0       0.973   5.957  -9.166  0.00  0.00    +0.004 A 
ATOM      4  C   UNK A   0       2.262   5.492  -9.184  0.00  0.00    +0.055 A 
ATOM      5  C   UNK A   0       2.572   4.465  -8.311  0.00  0.00    +0.004 A 
ATOM      6  C   UNK A   0       1.810   4.379  -7.151  0.00  0.00    -0.004 A 
ENDROOT
BRANCH   4   7
ATOM      7  C   UNK A   0       3.316   6.148  -9.970  0.00  0.00    +0.265 C 
ATOM      8  N   GLU A   1       3.404   5.832 -11.328  0.00  0.00    -0.192 NA
ATOM      9  O   UNK A   0       3.842   7.195  -9.546  0.00  0.00    -0.268 OA
BRANCH   8  10
ATOM     10  CA  GLU A   1       4.636   6.444 -12.121  0.00  0.00    +0.199 C 
BRANCH  10  11
ATOM     11  C   GLU A   1       4.227   5.643 -13.478  0.00  0.00    +0.384 C 
ATOM     12  OXT GLU A   1       2.833   5.781 -13.575  0.00  0.00    -0.244 OA
ATOM     13  O   GLU A   1       4.614   4.459 -13.541  0.00  0.00    -0.244 OA
ENDBRANCH  10  11
BRANCH  10  14
ATOM     14  CB  GLU A   1       5.698   5.265 -11.628  0.00  0.00    +0.045 C 
BRANCH  14  15
ATOM     15  CG  GLU A   1       6.961   6.107 -11.576  0.00  0.00    +0.116 C 
BRANCH  15  16
ATOM     16  CD  GLU A   1       8.013   5.634 -12.485  0.00  0.00    +0.365 C 
ATOM     17  OE2 GLU A   1       9.329   5.753 -12.023  0.00  0.00    -0.246 OA
ATOM     18  OE1 GLU A   1       7.818   4.769 -13.390  0.00  0.00    -0.246 OA
ENDBRANCH  15  16
ENDBRANCH  14  15
ENDBRANCH  10  14
ENDBRANCH   8  10
ENDBRANCH   4   7
BRANCH   1  19
ATOM     19  C   UNK A   0      -0.147   5.312  -5.778  0.00  0.00    +0.041 C 
BRANCH  19  20
ATOM     20  C   UNK A   0      -1.513   5.921  -6.480  0.00  0.00    +0.082 C 
BRANCH  20  22
ATOM     21  C   UNK A   0      -2.538   6.894  -4.611  0.00  0.00    -0.014 C 
ATOM     22  C   UNK A   0      -2.172   6.593  -5.347  0.00  0.00    -0.078 C 
ENDBRANCH  20  22
ENDBRANCH  19  20
BRANCH  19  23
ATOM     23  C   UNK A   0       0.708   6.712  -5.919  0.00  0.00    +0.053 C 
BRANCH  23  24
ATOM     24  C   UNK A   0       1.564   6.856  -4.751  0.00  0.00    +0.079 A 
ATOM     25  N   UNK A   0       1.188   6.187  -3.630  0.00  0.00    -0.242 NA
ATOM     26  C   UNK A   0       1.875   6.379  -2.491  0.00  0.00    +0.151 A 
ATOM     27  C   UNK A   0       3.090   7.045  -2.595  0.00  0.00    +0.186 A 
ATOM     28  N   UNK A   0       3.765   7.259  -1.461  0.00  0.00    -0.190 NA
ATOM     29  C   UNK A   0       3.577   6.547  -0.332  0.00  0.00    +0.259 A 
ATOM     30  N   UNK A   0       2.482   5.757  -0.298  0.00  0.00    -0.191 NA
ATOM     31  N   UNK A   0       4.416   6.680   0.816  0.00  0.00    -0.086 NA
ATOM     32  N   UNK A   0       3.653   7.310  -3.800  0.00  0.00    -0.222 NA
ATOM     33  C   UNK A   0       1.650   5.625  -1.346  0.00  0.00    +0.193 A 
ATOM     34  N   UNK A   0       0.796   4.501  -1.389  0.00  0.00    -0.105 NA
ATOM     35  C   UNK A   0       2.942   6.961  -4.898  0.00  0.00    +0.115 A 
ENDBRANCH  23  24
ENDBRANCH  19  23
ENDBRANCH   1  19
TORSDOF 11
ENDMDL
MODEL 2
REMARK VINA RESULT:      -8.8      4.798      7.471
REMARK  Name = 
REMARK  11 active torsions:
REMARK  status: ('A' for Active; 'I' for Inactive)
REMARK    1  A    between atoms: C_2  and  C_3
REMARK    2  A    between atoms: C_3  and  C_4
REMARK    3  A    between atoms: C_4  and  C_5
REMARK    4  A    between atoms: C_4  and  C_18
REMARK    5  A    between atoms: C_5  and  C_6
REMARK    6  A    between atoms: C_21  and  C_22
REMARK    7  A    between atoms: N_24  and  CA_25
REMARK    8  A    between atoms: CA_25  and  CB_26
REMARK    9  A    between atoms: CA_25  and  C_31
REMARK   10  A    between atoms: CB_26  and  CG_27
REMARK   11  A    between atoms: CG_27  and  CD_28
REMARK                            x       y       z     vdW  Elec       q    Type
REMARK                         _______ _______ _______ _____ _____    ______ ____
ROOT
ATOM      1  C   UNK A   0       1.276   5.960  -7.614  0.00  0.00    -0.021 A 
ATOM      2  C   UNK A   0       1.756   4.672  -7.852  0.00  0.00    -0.004 A 
ATOM      3  C   UNK A   0       3.055   4.430  -8.279  0.00  0.00    +0.004 A 
ATOM      4  C   UNK A   0       3.932   5.472  -8.429  0.00  0.00    +0.055 A 
ATOM      5  C   UNK A   0       3.530   6.705  -7.948  0.00  0.00    +0.004 A 
ATOM      6  C   UNK A   0       2.160   6.940  -7.896  0.00  0.00    -0.004 A 
ENDROOT
BRANCH   4   7
ATOM      7  C   UNK A   0       5.173   5.342  -9.204  0.00  0.00    +0.265 C 
ATOM      8  N   GLU A   1       5.214   5.938 -10.467  0.00  0.00    -0.192 NA
ATOM      9  O   UNK A   0       6.238   5.057  -8.623  0.00  0.00    -0.268 OA
BRANCH   8  10
ATOM     10  CA  GLU A   1       6.512   5.663 -11.340  0.00  0.00    +0.199 C 
BRANCH  10  11
ATOM     11  C   GLU A   1       6.908   7.243 -11.342  0.00  0.00    +0.384 C 
ATOM     12  OXT GLU A   1       7.848   7.383 -10.308  0.00  0.00    -0.244 OA
ATOM     13  O   GLU A   1       5.950   8.037 -11.253  0.00  0.00    -0.244 OA
ENDBRANCH  10  11
BRANCH  10  14
ATOM     14  CB  GLU A   1       5.708   5.762 -12.791  0.00  0.00    +0.045 C 
BRANCH  14  15
ATOM     15  CG  GLU A   1       6.916   5.822 -13.712  0.00  0.00    +0.116 C 
BRANCH  15  16
ATOM     16  CD  GLU A   1       6.651   6.526 -14.973  0.00  0.00    +0.365 C 
ATOM     17  OE2 GLU A   1       6.332   7.884 -14.868  0.00  0.00    -0.246 OA
ATOM     18  OE1 GLU A   1       7.105   6.147 -16.093  0.00  0.00    -0.246 OA
ENDBRANCH  15  16
ENDBRANCH  14  15
ENDBRANCH  10  14
ENDBRANCH   8  10
ENDBRANCH   4   7
BRANCH   1  19
ATOM     19  C   UNK A   0      -0.205   6.016  -8.266  0.00  0.00    +0.041 C 
BRANCH  19  20
ATOM     20  C   UNK A   0      -0.860   4.805  -7.353  0.00  0.00    +0.082 C 
BRANCH  20  22
ATOM     21  C   UNK A   0      -2.411   6.056  -6.121  0.00  0.00    -0.014 C 
ATOM     22  C   UNK A   0      -1.856   5.528  -6.543  0.00  0.00    -0.078 C 
ENDBRANCH  20  22
ENDBRANCH  19  20
BRANCH  19  23
ATOM     23  C   UNK A   0       0.226   5.025  -9.509  0.00  0.00    +0.053 C 
BRANCH  23  24
ATOM     24  C   UNK A   0       0.305   5.814 -10.729  0.00  0.00    +0.079 A 
ATOM     25  N   UNK A   0       0.612   5.147 -11.872  0.00  0.00    -0.242 NA
ATOM     26  C   UNK A   0       0.814   5.843 -13.003  0.00  0.00    +0.151 A 
ATOM     27  C   UNK A   0       0.434   7.179 -12.994  0.00  0.00    +0.186 A 
ATOM     28  N   UNK A   0       0.654   7.882 -14.110  0.00  0.00    -0.190 NA
ATOM     29  C   UNK A   0       0.820   7.324 -15.325  0.00  0.00    +0.259 A 
ATOM     30  N   UNK A   0       1.015   5.987 -15.348  0.00  0.00    -0.191 NA
ATOM     31  N   UNK A   0       0.893   8.091 -16.527  0.00  0.00    -0.086 NA
ATOM     32  N   UNK A   0      -0.287   7.706 -11.972  0.00  0.00    -0.222 NA
ATOM     33  C   UNK A   0       0.984   5.230 -14.238  0.00  0.00    +0.193 A 
ATOM     34  N   UNK A   0       0.779   3.840 -14.377  0.00  0.00    -0.105 NA
ATOM     35  C   UNK A   0      -0.555   6.887 -10.928  0.00  0.00    +0.115 A 
ENDBRANCH  23  24
ENDBRANCH  19  23
ENDBRANCH   1  19
TORSDOF 11
ENDMDL
MODEL 3
REMARK VINA RESULT:      -8.6      4.101     10.297
REMARK  Name = 
REMARK  11 active torsions:
REMARK  status: ('A' for Active; 'I' for Inactive)
REMARK    1  A    between atoms: C_2  and  C_3
REMARK    2  A    between atoms: C_3  and  C_4
REMARK    3  A    between atoms: C_4  and  C_5
REMARK    4  A    between atoms: C_4  and  C_18
REMARK    5  A    between atoms: C_5  and  C_6
REMARK    6  A    between atoms: C_21  and  C_22
REMARK    7  A    between atoms: N_24  and  CA_25
REMARK    8  A    between atoms: CA_25  and  CB_26
REMARK    9  A    between atoms: CA_25  and  C_31
REMARK   10  A    between atoms: CB_26  and  CG_27
REMARK   11  A    between atoms: CG_27  and  CD_28
REMARK                            x       y       z     vdW  Elec       q    Type
REMARK                         _______ _______ _______ _____ _____    ______ ____
ROOT
ATOM      1  C   UNK A   0       3.583   4.599  -8.248  0.00  0.00    -0.021 A 
ATOM      2  C   UNK A   0       4.499   5.417  -7.585  0.00  0.00    -0.004 A 
ATOM      3  C   UNK A   0       4.293   5.863  -6.286  0.00  0.00    +0.004 A 
ATOM      4  C   UNK A   0       3.184   5.457  -5.590  0.00  0.00    +0.055 A 
ATOM      5  C   UNK A   0       2.422   4.451  -6.155  0.00  0.00    +0.004 A 
ATOM      6  C   UNK A   0       2.463   4.338  -7.541  0.00  0.00    -0.004 A 
ENDROOT
BRANCH   4   7
ATOM      7  C   UNK A   0       2.723   6.155  -4.382  0.00  0.00    +0.265 C 
ATOM      8  N   GLU A   1       2.165   5.382  -3.361  0.00  0.00    -0.192 NA
ATOM      9  O   UNK A   0       3.150   7.297  -4.127  0.00  0.00    -0.268 OA
BRANCH   8  10
ATOM     10  CA  GLU A   1       1.547   6.173  -2.130  0.00  0.00    +0.199 C 
BRANCH  10  11
ATOM     11  C   GLU A   1       2.653   5.551  -1.109  0.00  0.00    +0.384 C 
ATOM     12  OXT GLU A   1       2.143   4.295  -0.743  0.00  0.00    -0.244 OA
ATOM     13  O   GLU A   1       2.950   6.270  -0.135  0.00  0.00    -0.244 OA
ENDBRANCH  10  11
BRANCH  10  14
ATOM     14  CB  GLU A   1       0.423   4.999  -1.781  0.00  0.00    +0.045 C 
BRANCH  14  15
ATOM     15  CG  GLU A   1      -0.829   5.857  -1.861  0.00  0.00    +0.116 C 
BRANCH  15  16
ATOM     16  CD  GLU A   1      -1.757   5.433  -2.918  0.00  0.00    +0.365 C 
ATOM     17  OE2 GLU A   1      -1.262   5.463  -4.225  0.00  0.00    -0.246 OA
ATOM     18  OE1 GLU A   1      -2.743   4.663  -2.714  0.00  0.00    -0.246 OA
ENDBRANCH  15  16
ENDBRANCH  14  15
ENDBRANCH  10  14
ENDBRANCH   8  10
ENDBRANCH   4   7
BRANCH   1  19
ATOM     19  C   UNK A   0       3.454   5.191  -9.749  0.00  0.00    +0.041 C 
BRANCH  19  20
ATOM     20  C   UNK A   0       4.075   6.686  -9.416  0.00  0.00    +0.082 C 
BRANCH  20  22
ATOM     21  C   UNK A   0       5.430   7.208 -11.255  0.00  0.00    -0.014 C 
ATOM     22  C   UNK A   0       4.916   6.944 -10.598  0.00  0.00    -0.078 C 
ENDBRANCH  20  22
ENDBRANCH  19  20
BRANCH  19  23
ATOM     23  C   UNK A   0       1.888   5.644  -9.513  0.00  0.00    +0.053 C 
BRANCH  23  24
ATOM     24  C   UNK A   0       1.385   6.240 -10.741  0.00  0.00    +0.079 A 
ATOM     25  N   UNK A   0       1.766   5.655 -11.907  0.00  0.00    -0.242 NA
ATOM     26  C   UNK A   0       1.429   6.235 -13.072  0.00  0.00    +0.151 A 
ATOM     27  C   UNK A   0       0.482   7.251 -13.016  0.00  0.00    +0.186 A 
ATOM     28  N   UNK A   0       0.160   7.845 -14.169  0.00  0.00    -0.190 NA
ATOM     29  C   UNK A   0       0.356   7.287 -15.380  0.00  0.00    +0.259 A 
ATOM     30  N   UNK A   0       1.139   6.186 -15.412  0.00  0.00    -0.191 NA
ATOM     31  N   UNK A   0      -0.140   7.864 -16.589  0.00  0.00    -0.086 NA
ATOM     32  N   UNK A   0      -0.215   7.511 -11.882  0.00  0.00    -0.222 NA
ATOM     33  C   UNK A   0       1.649   5.627 -14.301  0.00  0.00    +0.193 A 
ATOM     34  N   UNK A   0       2.089   4.286 -14.364  0.00  0.00    -0.105 NA
ATOM     35  C   UNK A   0       0.107   6.783 -10.786  0.00  0.00    +0.115 A 
ENDBRANCH  23  24
ENDBRANCH  19  23
ENDBRANCH   1  19
TORSDOF 11
ENDMDL
MODEL 4
REMARK VINA RESULT:      -8.6      1.886      2.705
REMARK  Name = 
REMARK  11 active torsions:
REMARK  status: ('A' for Active; 'I' for Inactive)
REMARK    1  A    between atoms: C_2  and  C_3
REMARK    2  A    between atoms: C_3  and  C_4
REMARK    3  A    between atoms: C_4  and  C_5
REMARK    4  A    between atoms: C_4  and  C_18
REMARK    5  A    between atoms: C_5  and  C_6
REMARK    6  A    between atoms: C_21  and  C_22
REMARK    7  A    between atoms: N_24  and  CA_25
REMARK    8  A    between atoms: CA_25  and  CB_26
REMARK    9  A    between atoms: CA_25  and  C_31
REMARK   10  A    between atoms: CB_26  and  CG_27
REMARK   11  A    between atoms: CG_27  and  CD_28
REMARK                            x       y       z     vdW  Elec       q    Type
REMARK                         _______ _______ _______ _____ _____    ______ ____
ROOT
ATOM      1  C   UNK A   0       2.666   4.649  -6.626  0.00  0.00    -0.021 A 
ATOM      2  C   UNK A   0       2.256   4.032  -7.808  0.00  0.00    -0.004 A 
ATOM      3  C   UNK A   0       2.783   4.373  -9.047  0.00  0.00    +0.004 A 
ATOM      4  C   UNK A   0       3.781   5.309  -9.132  0.00  0.00    +0.055 A 
ATOM      5  C   UNK A   0       4.356   5.723  -7.944  0.00  0.00    +0.004 A 
ATOM      6  C   UNK A   0       3.565   5.640  -6.804  0.00  0.00    -0.004 A 
ENDROOT
BRANCH   4   7
ATOM      7  C   UNK A   0       4.124   5.970 -10.398  0.00  0.00    +0.265 C 
ATOM      8  N   GLU A   1       3.415   5.589 -11.541  0.00  0.00    -0.192 NA
ATOM      9  O   UNK A   0       4.727   7.060 -10.383  0.00  0.00    -0.268 OA
BRANCH   8  10
ATOM     10  CA  GLU A   1       3.901   6.215 -12.918  0.00  0.00    +0.199 C 
BRANCH  10  11
ATOM     11  C   GLU A   1       2.553   5.709 -13.681  0.00  0.00    +0.384 C 
ATOM     12  OXT GLU A   1       2.929   4.526 -14.336  0.00  0.00    -0.244 OA
ATOM     13  O   GLU A   1       2.016   6.545 -14.434  0.00  0.00    -0.244 OA
ENDBRANCH  10  11
BRANCH  10  14
ATOM     14  CB  GLU A   1       4.773   4.871 -13.362  0.00  0.00    +0.045 C 
BRANCH  14  15
ATOM     15  CG  GLU A   1       6.053   5.568 -13.792  0.00  0.00    +0.116 C 
BRANCH  15  16
ATOM     16  CD  GLU A   1       7.059   5.647 -12.726  0.00  0.00    +0.365 C 
ATOM     17  OE2 GLU A   1       7.884   4.527 -12.570  0.00  0.00    -0.246 OA
ATOM     18  OE1 GLU A   1       7.514   6.739 -12.273  0.00  0.00    -0.246 OA
ENDBRANCH  15  16
ENDBRANCH  14  15
ENDBRANCH  10  14
ENDBRANCH   8  10
ENDBRANCH   4   7
BRANCH   1  19
ATOM     19  C   UNK A   0       1.318   4.942  -5.780  0.00  0.00    +0.041 C 
BRANCH  19  20
ATOM     20  C   UNK A   0       0.534   5.790  -6.961  0.00  0.00    +0.082 C 
BRANCH  20  22
ATOM     21  C   UNK A   0      -1.725   5.269  -6.619  0.00  0.00    -0.014 C 
ATOM     22  C   UNK A   0      -0.869   5.389  -6.753  0.00  0.00    -0.078 C 
ENDBRANCH  20  22
ENDBRANCH  19  20
BRANCH  19  23
ATOM     23  C   UNK A   0       1.969   6.278  -5.069  0.00  0.00    +0.053 C 
BRANCH  23  24
ATOM     24  C   UNK A   0       1.432   6.399  -3.722  0.00  0.00    +0.079 A 
ATOM     25  N   UNK A   0       0.132   6.045  -3.546  0.00  0.00    -0.242 NA
ATOM     26  C   UNK A   0      -0.446   6.250  -2.351  0.00  0.00    +0.151 A 
ATOM     27  C   UNK A   0       0.396   6.562  -1.291  0.00  0.00    +0.186 A 
ATOM     28  N   UNK A   0      -0.178   6.788  -0.105  0.00  0.00    -0.190 NA
ATOM     29  C   UNK A   0      -1.407   6.349   0.228  0.00  0.00    +0.259 A 
ATOM     30  N   UNK A   0      -2.169   5.877  -0.783  0.00  0.00    -0.191 NA
ATOM     31  N   UNK A   0      -1.938   6.459   1.549  0.00  0.00    -0.086 NA
ATOM     32  N   UNK A   0       1.744   6.468  -1.404  0.00  0.00    -0.222 NA
ATOM     33  C   UNK A   0      -1.719   5.782  -2.046  0.00  0.00    +0.193 A 
ATOM     34  N   UNK A   0      -2.392   4.918  -2.937  0.00  0.00    -0.105 NA
ATOM     35  C   UNK A   0       2.234   6.128  -2.620  0.00  0.00    +0.115 A 
ENDBRANCH  23  24
ENDBRANCH  19  23
ENDBRANCH   1  19
TORSDOF 11
ENDMDL
MODEL 5
REMARK VINA RESULT:      -8.3      4.075     10.297
REMARK  Name = 
REMARK  11 active torsions:
REMARK  status: ('A' for Active; 'I' for Inactive)
REMARK    1  A    between atoms: C_2  and  C_3
REMARK    2  A    between atoms: C_3  and  C_4
REMARK    3  A    between atoms: C_4  and  C_5
REMARK    4  A    between atoms: C_4  and  C_18
REMARK    5  A    between atoms: C_5  and  C_6
REMARK    6  A    between atoms: C_21  and  C_22
REMARK    7  A    between atoms: N_24  and  CA_25
REMARK    8  A    between atoms: CA_25  and  CB_26
REMARK    9  A    between atoms: CA_25  and  C_31
REMARK   10  A    between atoms: CB_26  and  CG_27
REMARK   11  A    between atoms: CG_27  and  CD_28
REMARK                            x       y       z     vdW  Elec       q    Type
REMARK                         _______ _______ _______ _____ _____    ______ ____
ROOT
ATOM      1  C   UNK A   0       3.336   6.734  -8.954  0.00  0.00    -0.021 A 
ATOM      2  C   UNK A   0       2.546   7.381  -8.003  0.00  0.00    -0.004 A 
ATOM      3  C   UNK A   0       2.624   7.087  -6.647  0.00  0.00    +0.004 A 
ATOM      4  C   UNK A   0       3.537   6.169  -6.197  0.00  0.00    +0.055 A 
ATOM      5  C   UNK A   0       4.482   5.727  -7.104  0.00  0.00    +0.004 A 
ATOM      6  C   UNK A   0       4.125   5.762  -8.447  0.00  0.00    -0.004 A 
ENDROOT
BRANCH   4   7
ATOM      7  C   UNK A   0       3.432   5.554  -4.867  0.00  0.00    +0.265 C 
ATOM      8  N   GLU A   1       2.242   5.739  -4.159  0.00  0.00    -0.192 NA
ATOM      9  O   UNK A   0       4.193   4.617  -4.558  0.00  0.00    -0.268 OA
BRANCH   8  10
ATOM     10  CA  GLU A   1       2.208   5.185  -2.671  0.00  0.00    +0.199 C 
BRANCH  10  11
ATOM     11  C   GLU A   1       0.641   5.593  -2.500  0.00  0.00    +0.384 C 
ATOM     12  OXT GLU A   1       0.150   4.739  -1.500  0.00  0.00    -0.244 OA
ATOM     13  O   GLU A   1      -0.037   5.573  -3.547  0.00  0.00    -0.244 OA
ENDBRANCH  10  11
BRANCH  10  14
ATOM     14  CB  GLU A   1       2.752   6.604  -1.999  0.00  0.00    +0.045 C 
BRANCH  14  15
ATOM     15  CG  GLU A   1       3.777   6.020  -1.041  0.00  0.00    +0.116 C 
BRANCH  15  16
ATOM     16  CD  GLU A   1       4.273   6.991  -0.057  0.00  0.00    +0.365 C 
ATOM     17  OE2 GLU A   1       4.074   8.341  -0.365  0.00  0.00    -0.246 OA
ATOM     18  OE1 GLU A   1       4.440   6.720   1.169  0.00  0.00    -0.246 OA
ENDBRANCH  15  16
ENDBRANCH  14  15
ENDBRANCH  10  14
ENDBRANCH   8  10
ENDBRANCH   4   7
BRANCH   1  19
ATOM     19  C   UNK A   0       2.356   6.393 -10.196  0.00  0.00    +0.041 C 
BRANCH  19  20
ATOM     20  C   UNK A   0       1.435   5.270  -9.408  0.00  0.00    +0.082 C 
BRANCH  20  22
ATOM     21  C   UNK A   0      -0.107   4.743 -11.093  0.00  0.00    -0.014 C 
ATOM     22  C   UNK A   0       0.411   4.945 -10.416  0.00  0.00    -0.078 C 
ENDBRANCH  20  22
ENDBRANCH  19  20
BRANCH  19  23
ATOM     23  C   UNK A   0       3.408   5.288 -10.816  0.00  0.00    +0.053 C 
BRANCH  23  24
ATOM     24  C   UNK A   0       3.776   5.698 -12.163  0.00  0.00    +0.079 A 
ATOM     25  N   UNK A   0       5.086   5.582 -12.503  0.00  0.00    -0.242 NA
ATOM     26  C   UNK A   0       5.499   6.058 -13.690  0.00  0.00    +0.151 A 
ATOM     27  C   UNK A   0       4.514   6.395 -14.609  0.00  0.00    +0.186 A 
ATOM     28  N   UNK A   0       4.920   6.890 -15.783  0.00  0.00    -0.190 NA
ATOM     29  C   UNK A   0       6.156   6.704 -16.285  0.00  0.00    +0.259 A 
ATOM     30  N   UNK A   0       7.080   6.204 -15.435  0.00  0.00    -0.191 NA
ATOM     31  N   UNK A   0       6.522   7.099 -17.608  0.00  0.00    -0.086 NA
ATOM     32  N   UNK A   0       3.211   6.077 -14.402  0.00  0.00    -0.222 NA
ATOM     33  C   UNK A   0       6.785   5.846 -14.173  0.00  0.00    +0.193 A 
ATOM     34  N   UNK A   0       7.664   4.969 -13.500  0.00  0.00    -0.105 NA
ATOM     35  C   UNK A   0       2.907   5.481 -13.225  0.00  0.00    +0.115 A 
ENDBRANCH  23  24
ENDBRANCH  19  23
ENDBRANCH   1  19
TORSDOF 11
ENDMDL
MODEL 6
REMARK VINA RESULT:      -8.3      2.023      3.434
REMARK  Name = 
REMARK  11 active torsions:
REMARK  status: ('A' for Active; 'I' for Inactive)
REMARK    1  A    between atoms: C_2  and  C_3
REMARK    2  A    between atoms: C_3  and  C_4
REMARK    3  A    between atoms: C_4  and  C_5
REMARK    4  A    between atoms: C_4  and  C_18
REMARK    5  A    between atoms: C_5  and  C_6
REMARK    6  A    between atoms: C_21  and  C_22
REMARK    7  A    between atoms: N_24  and  CA_25
REMARK    8  A    between atoms: CA_25  and  CB_26
REMARK    9  A    between atoms: CA_25  and  C_31
REMARK   10  A    between atoms: CB_26  and  CG_27
REMARK   11  A    between atoms: CG_27  and  CD_28
REMARK                            x       y       z     vdW  Elec       q    Type
REMARK                         _______ _______ _______ _____ _____    ______ ____
ROOT
ATOM      1  C   UNK A   0       3.311   5.278  -6.731  0.00  0.00    -0.021 A 
ATOM      2  C   UNK A   0       2.274   5.349  -7.662  0.00  0.00    -0.004 A 
ATOM      3  C   UNK A   0       2.505   5.550  -9.017  0.00  0.00    +0.004 A 
ATOM      4  C   UNK A   0       3.789   5.634  -9.488  0.00  0.00    +0.055 A 
ATOM      5  C   UNK A   0       4.804   5.308  -8.606  0.00  0.00    +0.004 A 
ATOM      6  C   UNK A   0       4.538   5.486  -7.253  0.00  0.00    -0.004 A 
ENDROOT
BRANCH   4   7
ATOM      7  C   UNK A   0       4.100   6.195 -10.809  0.00  0.00    +0.265 C 
ATOM      8  N   GLU A   1       3.319   5.778 -11.891  0.00  0.00    -0.192 NA
ATOM      9  O   UNK A   0       4.754   7.252 -10.894  0.00  0.00    -0.268 OA
BRANCH   8  10
ATOM     10  CA  GLU A   1       3.765   6.289 -13.327  0.00  0.00    +0.199 C 
BRANCH  10  11
ATOM     11  C   GLU A   1       2.531   5.505 -14.045  0.00  0.00    +0.384 C 
ATOM     12  OXT GLU A   1       3.061   4.258 -14.415  0.00  0.00    -0.244 OA
ATOM     13  O   GLU A   1       1.984   6.111 -14.987  0.00  0.00    -0.244 OA
ENDBRANCH  10  11
BRANCH  10  14
ATOM     14  CB  GLU A   1       4.833   5.040 -13.576  0.00  0.00    +0.045 C 
BRANCH  14  15
ATOM     15  CG  GLU A   1       6.026   5.856 -14.045  0.00  0.00    +0.116 C 
BRANCH  15  16
ATOM     16  CD  GLU A   1       7.227   5.654 -13.225  0.00  0.00    +0.365 C 
ATOM     17  OE2 GLU A   1       7.607   6.726 -12.410  0.00  0.00    -0.246 OA
ATOM     18  OE1 GLU A   1       7.649   4.512 -12.874  0.00  0.00    -0.246 OA
ENDBRANCH  15  16
ENDBRANCH  14  15
ENDBRANCH  10  14
ENDBRANCH   8  10
ENDBRANCH   4   7
BRANCH   1  19
ATOM     19  C   UNK A   0       2.832   6.155  -5.457  0.00  0.00    +0.041 C 
BRANCH  19  20
ATOM     20  C   UNK A   0       4.133   5.820  -4.496  0.00  0.00    +0.082 C 
BRANCH  20  22
ATOM     21  C   UNK A   0       5.141   7.896  -4.087  0.00  0.00    -0.014 C 
ATOM     22  C   UNK A   0       4.709   7.158  -4.274  0.00  0.00    -0.078 C 
ENDBRANCH  20  22
ENDBRANCH  19  20
BRANCH  19  23
ATOM     23  C   UNK A   0       1.912   4.924  -4.865  0.00  0.00    +0.053 C 
BRANCH  23  24
ATOM     24  C   UNK A   0       0.913   5.479  -3.964  0.00  0.00    +0.079 A 
ATOM     25  N   UNK A   0       1.262   5.595  -2.656  0.00  0.00    -0.242 NA
ATOM     26  C   UNK A   0       0.339   5.988  -1.764  0.00  0.00    +0.151 A 
ATOM     27  C   UNK A   0      -0.844   6.511  -2.272  0.00  0.00    +0.186 A 
ATOM     28  N   UNK A   0      -1.774   6.884  -1.388  0.00  0.00    -0.190 NA
ATOM     29  C   UNK A   0      -1.509   7.170  -0.098  0.00  0.00    +0.259 A 
ATOM     30  N   UNK A   0      -0.285   6.820   0.354  0.00  0.00    -0.191 NA
ATOM     31  N   UNK A   0      -2.483   7.721   0.789  0.00  0.00    -0.086 NA
ATOM     32  N   UNK A   0      -0.984   6.798  -3.591  0.00  0.00    -0.222 NA
ATOM     33  C   UNK A   0       0.652   6.273  -0.440  0.00  0.00    +0.193 A 
ATOM     34  N   UNK A   0       2.000   6.322  -0.022  0.00  0.00    -0.105 NA
ATOM     35  C   UNK A   0       0.056   6.483  -4.399  0.00  0.00    +0.115 A 
ENDBRANCH  23  24
ENDBRANCH  19  23
ENDBRANCH   1  19
TORSDOF 11
ENDMDL
MODEL 7
REMARK VINA RESULT:      -8.2      3.975     10.251
REMARK  Name = 
REMARK  11 active torsions:
REMARK  status: ('A' for Active; 'I' for Inactive)
REMARK    1  A    between atoms: C_2  and  C_3
REMARK    2  A    between atoms: C_3  and  C_4
REMARK    3  A    between atoms: C_4  and  C_5
REMARK    4  A    between atoms: C_4  and  C_18
REMARK    5  A    between atoms: C_5  and  C_6
REMARK    6  A    between atoms: C_21  and  C_22
REMARK    7  A    between atoms: N_24  and  CA_25
REMARK    8  A    between atoms: CA_25  and  CB_26
REMARK    9  A    between atoms: CA_25  and  C_31
REMARK   10  A    between atoms: CB_26  and  CG_27
REMARK   11  A    between atoms: CG_27  and  CD_28
REMARK                            x       y       z     vdW  Elec       q    Type
REMARK                         _______ _______ _______ _____ _____    ______ ____
ROOT
ATOM      1  C   UNK A   0       2.328   5.609  -8.939  0.00  0.00    -0.021 A 
ATOM      2  C   UNK A   0       3.436   6.234  -8.367  0.00  0.00    -0.004 A 
ATOM      3  C   UNK A   0       3.556   6.427  -6.996  0.00  0.00    +0.004 A 
ATOM      4  C   UNK A   0       2.589   5.950  -6.151  0.00  0.00    +0.055 A 
ATOM      5  C   UNK A   0       1.632   5.115  -6.699  0.00  0.00    +0.004 A 
ATOM      6  C   UNK A   0       1.365   5.273  -8.054  0.00  0.00    -0.004 A 
ENDROOT
BRANCH   4   7
ATOM      7  C   UNK A   0       2.464   6.421  -4.765  0.00  0.00    +0.265 C 
ATOM      8  N   GLU A   1       1.806   5.588  -3.855  0.00  0.00    -0.192 NA
ATOM      9  O   UNK A   0       3.223   7.314  -4.344  0.00  0.00    -0.268 OA
BRANCH   8  10
ATOM     10  CA  GLU A   1       1.560   6.180  -2.402  0.00  0.00    +0.199 C 
BRANCH  10  11
ATOM     11  C   GLU A   1       2.528   5.058  -1.726  0.00  0.00    +0.384 C 
ATOM     12  OXT GLU A   1       1.790   4.546  -0.646  0.00  0.00    -0.244 OA
ATOM     13  O   GLU A   1       3.667   5.451  -1.407  0.00  0.00    -0.244 OA
ENDBRANCH  10  11
BRANCH  10  14
ATOM     14  CB  GLU A   1       0.181   5.291  -2.138  0.00  0.00    +0.045 C 
BRANCH  14  15
ATOM     15  CG  GLU A   1      -0.810   6.200  -2.846  0.00  0.00    +0.116 C 
BRANCH  15  16
ATOM     16  CD  GLU A   1      -2.078   5.536  -3.173  0.00  0.00    +0.365 C 
ATOM     17  OE2 GLU A   1      -2.420   5.488  -4.529  0.00  0.00    -0.246 OA
ATOM     18  OE1 GLU A   1      -2.621   4.663  -2.432  0.00  0.00    -0.246 OA
ENDBRANCH  15  16
ENDBRANCH  14  15
ENDBRANCH  10  14
ENDBRANCH   8  10
ENDBRANCH   4   7
BRANCH   1  19
ATOM     19  C   UNK A   0       1.937   6.490 -10.240  0.00  0.00    +0.041 C 
BRANCH  19  20
ATOM     20  C   UNK A   0       0.299   6.323 -10.097  0.00  0.00    +0.082 C 
BRANCH  20  22
ATOM     21  C   UNK A   0      -0.540   7.657 -11.831  0.00  0.00    -0.014 C 
ATOM     22  C   UNK A   0      -0.199   7.222 -11.153  0.00  0.00    -0.078 C 
ENDBRANCH  20  22
ENDBRANCH  19  20
BRANCH  19  23
ATOM     23  C   UNK A   0       2.111   5.202 -11.253  0.00  0.00    +0.053 C 
BRANCH  23  24
ATOM     24  C   UNK A   0       2.897   5.618 -12.405  0.00  0.00    +0.079 A 
ATOM     25  N   UNK A   0       4.247   5.496 -12.302  0.00  0.00    -0.242 NA
ATOM     26  C   UNK A   0       5.024   5.976 -13.288  0.00  0.00    +0.151 A 
ATOM     27  C   UNK A   0       4.391   6.324 -14.474  0.00  0.00    +0.186 A 
ATOM     28  N   UNK A   0       5.158   6.822 -15.449  0.00  0.00    -0.190 NA
ATOM     29  C   UNK A   0       6.489   6.632 -15.525  0.00  0.00    +0.259 A 
ATOM     30  N   UNK A   0       7.085   6.123 -14.425  0.00  0.00    -0.191 NA
ATOM     31  N   UNK A   0       7.266   7.032 -16.655  0.00  0.00    -0.086 NA
ATOM     32  N   UNK A   0       3.091   6.012 -14.703  0.00  0.00    -0.222 NA
ATOM     33  C   UNK A   0       6.396   5.760 -13.329  0.00  0.00    +0.193 A 
ATOM     34  N   UNK A   0       7.006   4.874 -12.414  0.00  0.00    -0.105 NA
ATOM     35  C   UNK A   0       2.419   5.411 -13.693  0.00  0.00    +0.115 A 
ENDBRANCH  23  24
ENDBRANCH  19  23
ENDBRANCH   1  19
TORSDOF 11
ENDMDL
MODEL 8
REMARK VINA RESULT:      -8.1      4.734      9.647
REMARK  Name = 
REMARK  11 active torsions:
REMARK  status: ('A' for Active; 'I' for Inactive)
REMARK    1  A    between atoms: C_2  and  C_3
REMARK    2  A    between atoms: C_3  and  C_4
REMARK    3  A    between atoms: C_4  and  C_5
REMARK    4  A    between atoms: C_4  and  C_18
REMARK    5  A    between atoms: C_5  and  C_6
REMARK    6  A    between atoms: C_21  and  C_22
REMARK    7  A    between atoms: N_24  and  CA_25
REMARK    8  A    between atoms: CA_25  and  CB_26
REMARK    9  A    between atoms: CA_25  and  C_31
REMARK   10  A    between atoms: CB_26  and  CG_27
REMARK   11  A    between atoms: CG_27  and  CD_28
REMARK                            x       y       z     vdW  Elec       q    Type
REMARK                         _______ _______ _______ _____ _____    ______ ____
ROOT
ATOM      1  C   UNK A   0       1.988   6.094  -7.850  0.00  0.00    -0.021 A 
ATOM      2  C   UNK A   0       1.468   7.166  -7.123  0.00  0.00    -0.004 A 
ATOM      3  C   UNK A   0       0.599   6.988  -6.054  0.00  0.00    +0.004 A 
ATOM      4  C   UNK A   0       0.265   5.722  -5.646  0.00  0.00    +0.055 A 
ATOM      5  C   UNK A   0       0.979   4.675  -6.201  0.00  0.00    +0.004 A 
ATOM      6  C   UNK A   0       1.521   4.887  -7.464  0.00  0.00    -0.004 A 
ENDROOT
BRANCH   4   7
ATOM      7  C   UNK A   0      -0.898   5.461  -4.788  0.00  0.00    +0.265 C 
ATOM      8  N   GLU A   1      -0.833   5.893  -3.460  0.00  0.00    -0.192 NA
ATOM      9  O   UNK A   0      -2.006   5.222  -5.303  0.00  0.00    -0.268 OA
BRANCH   8  10
ATOM     10  CA  GLU A   1      -2.041   5.474  -2.518  0.00  0.00    +0.199 C 
BRANCH  10  11
ATOM     11  C   GLU A   1      -2.602   7.003  -2.473  0.00  0.00    +0.384 C 
ATOM     12  OXT GLU A   1      -3.973   6.894  -2.752  0.00  0.00    -0.244 OA
ATOM     13  O   GLU A   1      -2.008   7.816  -3.209  0.00  0.00    -0.244 OA
ENDBRANCH  10  11
BRANCH  10  14
ATOM     14  CB  GLU A   1      -1.169   5.650  -1.114  0.00  0.00    +0.045 C 
BRANCH  14  15
ATOM     15  CG  GLU A   1       0.193   5.232  -1.643  0.00  0.00    +0.116 C 
BRANCH  15  16
ATOM     16  CD  GLU A   1       1.301   5.599  -0.751  0.00  0.00    +0.365 C 
ATOM     17  OE2 GLU A   1       0.966   6.372   0.366  0.00  0.00    -0.246 OA
ATOM     18  OE1 GLU A   1       2.377   4.936  -0.664  0.00  0.00    -0.246 OA
ENDBRANCH  15  16
ENDBRANCH  14  15
ENDBRANCH  10  14
ENDBRANCH   8  10
ENDBRANCH   4   7
BRANCH   1  19
ATOM     19  C   UNK A   0       1.893   6.520  -9.408  0.00  0.00    +0.041 C 
BRANCH  19  20
ATOM     20  C   UNK A   0       0.315   6.081  -9.629  0.00  0.00    +0.082 C 
BRANCH  20  22
ATOM     21  C   UNK A   0      -0.283   7.361 -11.499  0.00  0.00    -0.014 C 
ATOM     22  C   UNK A   0      -0.047   6.825 -10.848  0.00  0.00    -0.078 C 
ENDBRANCH  20  22
ENDBRANCH  19  20
BRANCH  19  23
ATOM     23  C   UNK A   0       2.503   5.076  -9.914  0.00  0.00    +0.053 C 
BRANCH  23  24
ATOM     24  C   UNK A   0       3.930   5.229 -10.153  0.00  0.00    +0.079 A 
ATOM     25  N   UNK A   0       4.325   5.364 -11.446  0.00  0.00    -0.242 NA
ATOM     26  C   UNK A   0       5.638   5.389 -11.730  0.00  0.00    +0.151 A 
ATOM     27  C   UNK A   0       6.510   5.545 -10.660  0.00  0.00    +0.186 A 
ATOM     28  N   UNK A   0       7.818   5.548 -10.937  0.00  0.00    -0.190 NA
ATOM     29  C   UNK A   0       8.324   5.819 -12.155  0.00  0.00    +0.259 A 
ATOM     30  N   UNK A   0       7.443   5.843 -13.179  0.00  0.00    -0.191 NA
ATOM     31  N   UNK A   0       9.723   5.977 -12.395  0.00  0.00    -0.086 NA
ATOM     32  N   UNK A   0       6.061   5.858  -9.419  0.00  0.00    -0.222 NA
ATOM     33  C   UNK A   0       6.122   5.671 -13.002  0.00  0.00    +0.193 A 
ATOM     34  N   UNK A   0       5.244   6.114 -14.016  0.00  0.00    -0.105 NA
ATOM     35  C   UNK A   0       4.719   5.939  -9.256  0.00  0.00    +0.115 A 
ENDBRANCH  23  24
ENDBRANCH  19  23
ENDBRANCH   1  19
TORSDOF 11
ENDMDL
MODEL 9
REMARK VINA RESULT:      -8.1      5.037      9.820
REMARK  Name = 
REMARK  11 active torsions:
REMARK  status: ('A' for Active; 'I' for Inactive)
REMARK    1  A    between atoms: C_2  and  C_3
REMARK    2  A    between atoms: C_3  and  C_4
REMARK    3  A    between atoms: C_4  and  C_5
REMARK    4  A    between atoms: C_4  and  C_18
REMARK    5  A    between atoms: C_5  and  C_6
REMARK    6  A    between atoms: C_21  and  C_22
REMARK    7  A    between atoms: N_24  and  CA_25
REMARK    8  A    between atoms: CA_25  and  CB_26
REMARK    9  A    between atoms: CA_25  and  C_31
REMARK   10  A    between atoms: CB_26  and  CG_27
REMARK   11  A    between atoms: CG_27  and  CD_28
REMARK                            x       y       z     vdW  Elec       q    Type
REMARK                         _______ _______ _______ _____ _____    ______ ____
ROOT
ATOM      1  C   UNK A   0       1.490   5.993  -6.527  0.00  0.00    -0.021 A 
ATOM      2  C   UNK A   0       1.343   4.745  -5.921  0.00  0.00    -0.004 A 
ATOM      3  C   UNK A   0       0.641   4.572  -4.735  0.00  0.00    +0.004 A 
ATOM      4  C   UNK A   0       0.017   5.641  -4.146  0.00  0.00    +0.055 A 
ATOM      5  C   UNK A   0      -0.050   6.811  -4.881  0.00  0.00    +0.004 A 
ATOM      6  C   UNK A   0       0.948   7.013  -5.828  0.00  0.00    -0.004 A 
ENDROOT
BRANCH   4   7
ATOM      7  C   UNK A   0      -0.421   5.613  -2.745  0.00  0.00    +0.265 C 
ATOM      8  N   GLU A   1       0.118   6.568  -1.878  0.00  0.00    -0.192 NA
ATOM      9  O   UNK A   0      -1.481   5.034  -2.440  0.00  0.00    -0.268 OA
BRANCH   8  10
ATOM     10  CA  GLU A   1      -0.263   6.427  -0.343  0.00  0.00    +0.199 C 
BRANCH  10  11
ATOM     11  C   GLU A   1      -1.343   7.642  -0.448  0.00  0.00    +0.384 C 
ATOM     12  OXT GLU A   1      -0.808   8.672   0.342  0.00  0.00    -0.244 OA
ATOM     13  O   GLU A   1      -2.517   7.345  -0.149  0.00  0.00    -0.244 OA
ENDBRANCH  10  11
BRANCH  10  14
ATOM     14  CB  GLU A   1       0.958   7.427   0.179  0.00  0.00    +0.045 C 
BRANCH  14  15
ATOM     15  CG  GLU A   1       2.054   6.952  -0.759  0.00  0.00    +0.116 C 
BRANCH  15  16
ATOM     16  CD  GLU A   1       3.392   6.989  -0.156  0.00  0.00    +0.365 C 
ATOM     17  OE2 GLU A   1       4.061   5.764  -0.059  0.00  0.00    -0.246 OA
ATOM     18  OE1 GLU A   1       4.123   8.023  -0.140  0.00  0.00    -0.246 OA
ENDBRANCH  15  16
ENDBRANCH  14  15
ENDBRANCH  10  14
ENDBRANCH   8  10
ENDBRANCH   4   7
BRANCH   1  19
ATOM     19  C   UNK A   0       3.036   6.086  -6.998  0.00  0.00    +0.041 C 
BRANCH  19  20
ATOM     20  C   UNK A   0       3.511   7.196  -5.869  0.00  0.00    +0.082 C 
BRANCH  20  22
ATOM     21  C   UNK A   0       4.752   5.951  -4.320  0.00  0.00    -0.014 C 
ATOM     22  C   UNK A   0       4.326   6.380  -4.953  0.00  0.00    -0.078 C 
ENDBRANCH  20  22
ENDBRANCH  19  20
BRANCH  19  23
ATOM     23  C   UNK A   0       2.692   7.211  -8.151  0.00  0.00    +0.053 C 
BRANCH  23  24
ATOM     24  C   UNK A   0       3.358   6.829  -9.387  0.00  0.00    +0.079 A 
ATOM     25  N   UNK A   0       4.680   6.523  -9.303  0.00  0.00    -0.242 NA
ATOM     26  C   UNK A   0       5.369   6.281 -10.431  0.00  0.00    +0.151 A 
ATOM     27  C   UNK A   0       4.629   6.095 -11.592  0.00  0.00    +0.186 A 
ATOM     28  N   UNK A   0       5.313   5.877 -12.720  0.00  0.00    -0.190 NA
ATOM     29  C   UNK A   0       6.582   5.426 -12.751  0.00  0.00    +0.259 A 
ATOM     30  N   UNK A   0       7.251   5.440 -11.577  0.00  0.00    -0.191 NA
ATOM     31  N   UNK A   0       7.240   5.045 -13.960  0.00  0.00    -0.086 NA
ATOM     32  N   UNK A   0       3.280   5.964 -11.560  0.00  0.00    -0.222 NA
ATOM     33  C   UNK A   0       6.679   5.818 -10.421  0.00  0.00    +0.193 A 
ATOM     34  N   UNK A   0       7.285   5.420  -9.209  0.00  0.00    -0.105 NA
ATOM     35  C   UNK A   0       2.681   6.095 -10.353  0.00  0.00    +0.115 A 
ENDBRANCH  23  24
ENDBRANCH  19  23
ENDBRANCH   1  19
TORSDOF 11
ENDMDL
