MODEL 1
REMARK VINA RESULT:      -6.1      0.000      0.000
REMARK  Name = 
REMARK  10 active torsions:
REMARK  status: ('A' for Active; 'I' for Inactive)
REMARK    1  A    between atoms: C_2  and  C_3
REMARK    2  A    between atoms: C_3  and  O_4
REMARK    3  A    between atoms: O_4  and  C_5
REMARK    4  A    between atoms: C_8  and  C_9
REMARK    5  A    between atoms: C_9  and  O_11
REMARK    6  A    between atoms: O_11  and  C_12
REMARK    7  A    between atoms: C_12  and  C_13
REMARK    8  A    between atoms: C_13  and  N_14
REMARK    9  A    between atoms: N_14  and  C_15
REMARK   10  A    between atoms: N_14  and  C_17
REMARK                            x       y       z     vdW  Elec       q    Type
REMARK                         _______ _______ _______ _____ _____    ______ ____
ROOT
ATOM      1  C   UNL     1       6.785   6.349 -10.177  0.00  0.00    +0.155 A 
ATOM      2  C   UNL     1       5.856   7.178 -10.771  0.00  0.00    +0.123 A 
ATOM      3  N   UNL     1       6.364   8.358 -11.396  0.00  0.00    -0.125 NA
ATOM      4  C   UNL     1       4.516   6.987 -10.513  0.00  0.00    +0.028 A 
ATOM      5  C   UNL     1       4.109   6.106  -9.546  0.00  0.00    +0.077 A 
ATOM      6  C   UNL     1       5.063   5.573  -8.693  0.00  0.00    +0.010 A 
ATOM      7  C   UNL     1       6.364   5.521  -9.145  0.00  0.00    +0.039 A 
ENDROOT
BRANCH   5   8
ATOM      8  C   UNL     1       2.717   5.826  -9.240  0.00  0.00    +0.341 C 
ATOM      9  O   UNL     1       2.214   4.689  -9.424  0.00  0.00    -0.245 OA
BRANCH   8  10
ATOM     10  O   UNL     1       1.909   6.888  -8.870  0.00  0.00    -0.444 OA
BRANCH  10  11
ATOM     11  C   UNL     1       2.117   7.585  -7.652  0.00  0.00    +0.226 C 
BRANCH  11  12
ATOM     12  C   UNL     1       1.825   6.726  -6.451  0.00  0.00    +0.120 C 
BRANCH  12  13
ATOM     13  N   UNL     1       3.046   6.345  -5.788  0.00  0.00    -0.270 NA
BRANCH  13  14
ATOM     14  C   UNL     1       3.322   7.112  -4.601  0.00  0.00    +0.072 C 
ATOM     15  C   UNL     1       4.784   7.442  -4.434  0.00  0.00    +0.019 C 
ENDBRANCH  13  14
BRANCH  13  16
ATOM     16  C   UNL     1       3.114   4.923  -5.573  0.00  0.00    +0.072 C 
ATOM     17  C   UNL     1       1.746   4.354  -5.899  0.00  0.00    +0.019 C 
ENDBRANCH  13  16
ENDBRANCH  12  13
ENDBRANCH  11  12
ENDBRANCH  10  11
ENDBRANCH   8  10
ENDBRANCH   5   8
BRANCH   1  18
ATOM     18  O   UNL     1       7.986   6.126 -10.837  0.00  0.00    -0.474 OA
BRANCH  18  19
ATOM     19  C   UNL     1       8.040   5.160 -11.856  0.00  0.00    +0.205 C 
BRANCH  19  21
ATOM     20  C   UNL     1       6.923   5.598 -14.014  0.00  0.00    +0.004 C 
ATOM     21  C   UNL     1       8.192   5.821 -13.215  0.00  0.00    +0.047 C 
ENDBRANCH  19  21
ENDBRANCH  18  19
ENDBRANCH   1  18
TORSDOF 10
ENDMDL
MODEL 2
REMARK VINA RESULT:      -5.9      2.692      3.474
REMARK  Name = 
REMARK  10 active torsions:
REMARK  status: ('A' for Active; 'I' for Inactive)
REMARK    1  A    between atoms: C_2  and  C_3
REMARK    2  A    between atoms: C_3  and  O_4
REMARK    3  A    between atoms: O_4  and  C_5
REMARK    4  A    between atoms: C_8  and  C_9
REMARK    5  A    between atoms: C_9  and  O_11
REMARK    6  A    between atoms: O_11  and  C_12
REMARK    7  A    between atoms: C_12  and  C_13
REMARK    8  A    between atoms: C_13  and  N_14
REMARK    9  A    between atoms: N_14  and  C_15
REMARK   10  A    between atoms: N_14  and  C_17
REMARK                            x       y       z     vdW  Elec       q    Type
REMARK                         _______ _______ _______ _____ _____    ______ ____
ROOT
ATOM      1  C   UNL     1       4.749   5.533  -9.891  0.00  0.00    +0.155 A 
ATOM      2  C   UNL     1       3.370   5.515  -9.944  0.00  0.00    +0.123 A 
ATOM      3  N   UNL     1       2.770   6.147 -11.075  0.00  0.00    -0.125 NA
ATOM      4  C   UNL     1       2.655   5.149  -8.825  0.00  0.00    +0.028 A 
ATOM      5  C   UNL     1       3.282   4.975  -7.619  0.00  0.00    +0.077 A 
ATOM      6  C   UNL     1       4.603   5.377  -7.498  0.00  0.00    +0.010 A 
ATOM      7  C   UNL     1       5.361   5.434  -8.647  0.00  0.00    +0.039 A 
ENDROOT
BRANCH   5   8
ATOM      8  C   UNL     1       2.602   4.559  -6.405  0.00  0.00    +0.341 C 
ATOM      9  O   UNL     1       2.011   3.453  -6.323  0.00  0.00    -0.245 OA
BRANCH   8  10
ATOM     10  O   UNL     1       2.496   5.478  -5.375  0.00  0.00    -0.444 OA
BRANCH  10  11
ATOM     11  C   UNL     1       1.286   5.640  -4.652  0.00  0.00    +0.226 C 
BRANCH  11  12
ATOM     12  C   UNL     1       0.225   6.326  -5.469  0.00  0.00    +0.120 C 
BRANCH  12  13
ATOM     13  N   UNL     1      -1.081   5.821  -5.136  0.00  0.00    -0.270 NA
BRANCH  13  14
ATOM     14  C   UNL     1      -1.797   6.644  -4.196  0.00  0.00    +0.072 C 
ATOM     15  C   UNL     1      -1.763   8.111  -4.543  0.00  0.00    +0.019 C 
ENDBRANCH  13  14
BRANCH  13  16
ATOM     16  C   UNL     1      -1.848   5.509  -6.315  0.00  0.00    +0.072 C 
ATOM     17  C   UNL     1      -0.866   5.358  -7.461  0.00  0.00    +0.019 C 
ENDBRANCH  13  16
ENDBRANCH  12  13
ENDBRANCH  11  12
ENDBRANCH  10  11
ENDBRANCH   8  10
ENDBRANCH   5   8
BRANCH   1  18
ATOM     18  O   UNL     1       5.457   5.308 -11.063  0.00  0.00    -0.474 OA
BRANCH  18  19
ATOM     19  C   UNL     1       6.789   5.742 -11.154  0.00  0.00    +0.205 C 
BRANCH  19  21
ATOM     20  C   UNL     1       6.525   8.178 -11.458  0.00  0.00    +0.004 C 
ATOM     21  C   UNL     1       6.914   6.886 -12.147  0.00  0.00    +0.047 C 
ENDBRANCH  19  21
ENDBRANCH  18  19
ENDBRANCH   1  18
TORSDOF 10
ENDMDL
MODEL 3
REMARK VINA RESULT:      -5.9      3.429      5.151
REMARK  Name = 
REMARK  10 active torsions:
REMARK  status: ('A' for Active; 'I' for Inactive)
REMARK    1  A    between atoms: C_2  and  C_3
REMARK    2  A    between atoms: C_3  and  O_4
REMARK    3  A    between atoms: O_4  and  C_5
REMARK    4  A    between atoms: C_8  and  C_9
REMARK    5  A    between atoms: C_9  and  O_11
REMARK    6  A    between atoms: O_11  and  C_12
REMARK    7  A    between atoms: C_12  and  C_13
REMARK    8  A    between atoms: C_13  and  N_14
REMARK    9  A    between atoms: N_14  and  C_15
REMARK   10  A    between atoms: N_14  and  C_17
REMARK                            x       y       z     vdW  Elec       q    Type
REMARK                         _______ _______ _______ _____ _____    ______ ____
ROOT
ATOM      1  C   UNL     1       3.622   6.246  -7.645  0.00  0.00    +0.155 A 
ATOM      2  C   UNL     1       2.655   7.073  -7.110  0.00  0.00    +0.123 A 
ATOM      3  N   UNL     1       2.242   8.174  -7.920  0.00  0.00    -0.125 NA
ATOM      4  C   UNL     1       2.340   6.968  -5.773  0.00  0.00    +0.028 A 
ATOM      5  C   UNL     1       3.091   6.185  -4.936  0.00  0.00    +0.077 A 
ATOM      6  C   UNL     1       4.288   5.671  -5.409  0.00  0.00    +0.010 A 
ATOM      7  C   UNL     1       4.423   5.521  -6.772  0.00  0.00    +0.039 A 
ENDROOT
BRANCH   5   8
ATOM      8  C   UNL     1       2.802   5.999  -3.525  0.00  0.00    +0.341 C 
ATOM      9  O   UNL     1       3.646   5.503  -2.736  0.00  0.00    -0.245 OA
BRANCH   8  10
ATOM     10  O   UNL     1       1.512   6.250  -3.089  0.00  0.00    -0.444 OA
BRANCH  10  11
ATOM     11  C   UNL     1       0.524   5.232  -3.084  0.00  0.00    +0.226 C 
BRANCH  11  12
ATOM     12  C   UNL     1      -0.865   5.791  -2.928  0.00  0.00    +0.120 C 
BRANCH  12  13
ATOM     13  N   UNL     1      -1.305   6.412  -4.150  0.00  0.00    -0.270 NA
BRANCH  13  14
ATOM     14  C   UNL     1      -1.069   5.610  -5.323  0.00  0.00    +0.072 C 
ATOM     15  C   UNL     1      -2.195   5.675  -6.325  0.00  0.00    +0.019 C 
ENDBRANCH  13  14
BRANCH  13  16
ATOM     16  C   UNL     1      -2.662   6.883  -4.050  0.00  0.00    +0.072 C 
ATOM     17  C   UNL     1      -3.235   6.327  -2.760  0.00  0.00    +0.019 C 
ENDBRANCH  13  16
ENDBRANCH  12  13
ENDBRANCH  11  12
ENDBRANCH  10  11
ENDBRANCH   8  10
ENDBRANCH   5   8
BRANCH   1  18
ATOM     18  O   UNL     1       3.534   5.914  -8.990  0.00  0.00    -0.474 OA
BRANCH  18  19
ATOM     19  C   UNL     1       4.579   5.189  -9.586  0.00  0.00    +0.205 C 
BRANCH  19  21
ATOM     20  C   UNL     1       6.975   5.782  -9.507  0.00  0.00    +0.004 C 
ATOM     21  C   UNL     1       5.640   6.129 -10.135  0.00  0.00    +0.047 C 
ENDBRANCH  19  21
ENDBRANCH  18  19
ENDBRANCH   1  18
TORSDOF 10
ENDMDL
MODEL 4
REMARK VINA RESULT:      -5.8      1.672      2.199
REMARK  Name = 
REMARK  10 active torsions:
REMARK  status: ('A' for Active; 'I' for Inactive)
REMARK    1  A    between atoms: C_2  and  C_3
REMARK    2  A    between atoms: C_3  and  O_4
REMARK    3  A    between atoms: O_4  and  C_5
REMARK    4  A    between atoms: C_8  and  C_9
REMARK    5  A    between atoms: C_9  and  O_11
REMARK    6  A    between atoms: O_11  and  C_12
REMARK    7  A    between atoms: C_12  and  C_13
REMARK    8  A    between atoms: C_13  and  N_14
REMARK    9  A    between atoms: N_14  and  C_15
REMARK   10  A    between atoms: N_14  and  C_17
REMARK                            x       y       z     vdW  Elec       q    Type
REMARK                         _______ _______ _______ _____ _____    ______ ____
ROOT
ATOM      1  C   UNL     1       7.116   6.386 -10.338  0.00  0.00    +0.155 A 
ATOM      2  C   UNL     1       5.977   7.057 -10.732  0.00  0.00    +0.123 A 
ATOM      3  N   UNL     1       6.171   8.314 -11.380  0.00  0.00    -0.125 NA
ATOM      4  C   UNL     1       4.750   6.638 -10.263  0.00  0.00    +0.028 A 
ATOM      5  C   UNL     1       4.662   5.687  -9.282  0.00  0.00    +0.077 A 
ATOM      6  C   UNL     1       5.823   5.307  -8.625  0.00  0.00    +0.010 A 
ATOM      7  C   UNL     1       7.018   5.482  -9.288  0.00  0.00    +0.039 A 
ENDROOT
BRANCH   5   8
ATOM      8  C   UNL     1       3.408   5.172  -8.762  0.00  0.00    +0.341 C 
ATOM      9  O   UNL     1       2.371   5.115  -9.469  0.00  0.00    -0.245 OA
BRANCH   8  10
ATOM     10  O   UNL     1       3.341   4.875  -7.411  0.00  0.00    -0.444 OA
BRANCH  10  11
ATOM     11  C   UNL     1       2.323   5.417  -6.585  0.00  0.00    +0.226 C 
BRANCH  11  12
ATOM     12  C   UNL     1       1.342   4.368  -6.134  0.00  0.00    +0.120 C 
BRANCH  12  13
ATOM     13  N   UNL     1       0.329   4.948  -5.291  0.00  0.00    -0.270 NA
BRANCH  13  14
ATOM     14  C   UNL     1       0.811   5.334  -3.989  0.00  0.00    +0.072 C 
ATOM     15  C   UNL     1      -0.282   5.429  -2.954  0.00  0.00    +0.019 C 
ENDBRANCH  13  14
BRANCH  13  16
ATOM     16  C   UNL     1      -0.387   6.000  -5.965  0.00  0.00    +0.072 C 
ATOM     17  C   UNL     1      -1.531   5.351  -6.721  0.00  0.00    +0.019 C 
ENDBRANCH  13  16
ENDBRANCH  12  13
ENDBRANCH  11  12
ENDBRANCH  10  11
ENDBRANCH   8  10
ENDBRANCH   5   8
BRANCH   1  18
ATOM     18  O   UNL     1       8.206   6.378 -11.198  0.00  0.00    -0.474 OA
BRANCH  18  19
ATOM     19  C   UNL     1       8.287   5.390 -12.193  0.00  0.00    +0.205 C 
BRANCH  19  21
ATOM     20  C   UNL     1       6.590   5.549 -13.979  0.00  0.00    +0.004 C 
ATOM     21  C   UNL     1       7.982   5.979 -13.560  0.00  0.00    +0.047 C 
ENDBRANCH  19  21
ENDBRANCH  18  19
ENDBRANCH   1  18
TORSDOF 10
ENDMDL
MODEL 5
REMARK VINA RESULT:      -5.7      2.805      4.680
REMARK  Name = 
REMARK  10 active torsions:
REMARK  status: ('A' for Active; 'I' for Inactive)
REMARK    1  A    between atoms: C_2  and  C_3
REMARK    2  A    between atoms: C_3  and  O_4
REMARK    3  A    between atoms: O_4  and  C_5
REMARK    4  A    between atoms: C_8  and  C_9
REMARK    5  A    between atoms: C_9  and  O_11
REMARK    6  A    between atoms: O_11  and  C_12
REMARK    7  A    between atoms: C_12  and  C_13
REMARK    8  A    between atoms: C_13  and  N_14
REMARK    9  A    between atoms: N_14  and  C_15
REMARK   10  A    between atoms: N_14  and  C_17
REMARK                            x       y       z     vdW  Elec       q    Type
REMARK                         _______ _______ _______ _____ _____    ______ ____
ROOT
ATOM      1  C   UNL     1       3.002   6.000  -8.948  0.00  0.00    +0.155 A 
ATOM      2  C   UNL     1       3.089   4.940  -8.069  0.00  0.00    +0.123 A 
ATOM      3  N   UNL     1       2.801   3.647  -8.602  0.00  0.00    -0.125 NA
ATOM      4  C   UNL     1       3.178   5.189  -6.716  0.00  0.00    +0.028 A 
ATOM      5  C   UNL     1       3.003   6.456  -6.225  0.00  0.00    +0.077 A 
ATOM      6  C   UNL     1       2.531   7.438  -7.082  0.00  0.00    +0.010 A 
ATOM      7  C   UNL     1       2.746   7.264  -8.431  0.00  0.00    +0.039 A 
ENDROOT
BRANCH   5   8
ATOM      8  C   UNL     1       3.115   6.801  -4.819  0.00  0.00    +0.341 C 
ATOM      9  O   UNL     1       4.204   6.712  -4.199  0.00  0.00    -0.245 OA
BRANCH   8  10
ATOM     10  O   UNL     1       1.950   7.100  -4.132  0.00  0.00    -0.444 OA
BRANCH  10  11
ATOM     11  C   UNL     1       1.311   6.137  -3.309  0.00  0.00    +0.226 C 
BRANCH  11  12
ATOM     12  C   UNL     1       0.225   5.396  -4.041  0.00  0.00    +0.120 C 
BRANCH  12  13
ATOM     13  N   UNL     1      -0.506   6.287  -4.904  0.00  0.00    -0.270 NA
BRANCH  13  14
ATOM     14  C   UNL     1      -0.665   5.790  -6.247  0.00  0.00    +0.072 C 
ATOM     15  C   UNL     1      -2.079   5.368  -6.561  0.00  0.00    +0.019 C 
ENDBRANCH  13  14
BRANCH  13  16
ATOM     16  C   UNL     1      -1.746   6.711  -4.306  0.00  0.00    +0.072 C 
ATOM     17  C   UNL     1      -1.811   8.221  -4.433  0.00  0.00    +0.019 C 
ENDBRANCH  13  16
ENDBRANCH  12  13
ENDBRANCH  11  12
ENDBRANCH  10  11
ENDBRANCH   8  10
ENDBRANCH   5   8
BRANCH   1  18
ATOM     18  O   UNL     1       3.498   5.833 -10.233  0.00  0.00    -0.474 OA
BRANCH  18  19
ATOM     19  C   UNL     1       4.877   5.974 -10.461  0.00  0.00    +0.205 C 
BRANCH  19  21
ATOM     20  C   UNL     1       6.695   7.501 -11.140  0.00  0.00    +0.004 C 
ATOM     21  C   UNL     1       5.217   7.412 -10.818  0.00  0.00    +0.047 C 
ENDBRANCH  19  21
ENDBRANCH  18  19
ENDBRANCH   1  18
TORSDOF 10
ENDMDL
MODEL 6
REMARK VINA RESULT:      -5.7      1.635      2.418
REMARK  Name = 
REMARK  10 active torsions:
REMARK  status: ('A' for Active; 'I' for Inactive)
REMARK    1  A    between atoms: C_2  and  C_3
REMARK    2  A    between atoms: C_3  and  O_4
REMARK    3  A    between atoms: O_4  and  C_5
REMARK    4  A    between atoms: C_8  and  C_9
REMARK    5  A    between atoms: C_9  and  O_11
REMARK    6  A    between atoms: O_11  and  C_12
REMARK    7  A    between atoms: C_12  and  C_13
REMARK    8  A    between atoms: C_13  and  N_14
REMARK    9  A    between atoms: N_14  and  C_15
REMARK   10  A    between atoms: N_14  and  C_17
REMARK                            x       y       z     vdW  Elec       q    Type
REMARK                         _______ _______ _______ _____ _____    ______ ____
ROOT
ATOM      1  C   UNL     1       6.533   6.329  -9.994  0.00  0.00    +0.155 A 
ATOM      2  C   UNL     1       5.654   7.047 -10.778  0.00  0.00    +0.123 A 
ATOM      3  N   UNL     1       6.139   8.281 -11.309  0.00  0.00    -0.125 NA
ATOM      4  C   UNL     1       4.320   6.700 -10.790  0.00  0.00    +0.028 A 
ATOM      5  C   UNL     1       3.830   5.774  -9.909  0.00  0.00    +0.077 A 
ATOM      6  C   UNL     1       4.647   5.350  -8.872  0.00  0.00    +0.010 A 
ATOM      7  C   UNL     1       6.009   5.452  -9.052  0.00  0.00    +0.039 A 
ENDROOT
BRANCH   5   8
ATOM      8  C   UNL     1       2.446   5.333  -9.883  0.00  0.00    +0.341 C 
ATOM      9  O   UNL     1       1.783   5.172 -10.939  0.00  0.00    -0.245 OA
BRANCH   8  10
ATOM     10  O   UNL     1       1.822   5.229  -8.652  0.00  0.00    -0.444 OA
BRANCH  10  11
ATOM     11  C   UNL     1       1.163   6.338  -8.062  0.00  0.00    +0.226 C 
BRANCH  11  12
ATOM     12  C   UNL     1       1.301   6.349  -6.564  0.00  0.00    +0.120 C 
BRANCH  12  13
ATOM     13  N   UNL     1       0.010   6.436  -5.934  0.00  0.00    -0.270 NA
BRANCH  13  14
ATOM     14  C   UNL     1      -0.906   5.404  -6.347  0.00  0.00    +0.072 C 
ATOM     15  C   UNL     1      -2.349   5.840  -6.312  0.00  0.00    +0.019 C 
ENDBRANCH  13  14
BRANCH  13  16
ATOM     16  C   UNL     1       0.122   6.553  -4.502  0.00  0.00    +0.072 C 
ATOM     17  C   UNL     1       1.602   6.575  -4.169  0.00  0.00    +0.019 C 
ENDBRANCH  13  16
ENDBRANCH  12  13
ENDBRANCH  11  12
ENDBRANCH  10  11
ENDBRANCH   8  10
ENDBRANCH   5   8
BRANCH   1  18
ATOM     18  O   UNL     1       7.860   6.249 -10.395  0.00  0.00    -0.474 OA
BRANCH  18  19
ATOM     19  C   UNL     1       8.240   5.258 -11.315  0.00  0.00    +0.205 C 
BRANCH  19  21
ATOM     20  C   UNL     1       7.481   5.614 -13.638  0.00  0.00    +0.004 C 
ATOM     21  C   UNL     1       8.602   5.880 -12.654  0.00  0.00    +0.047 C 
ENDBRANCH  19  21
ENDBRANCH  18  19
ENDBRANCH   1  18
TORSDOF 10
ENDMDL
MODEL 7
REMARK VINA RESULT:      -5.7      2.786      5.079
REMARK  Name = 
REMARK  10 active torsions:
REMARK  status: ('A' for Active; 'I' for Inactive)
REMARK    1  A    between atoms: C_2  and  C_3
REMARK    2  A    between atoms: C_3  and  O_4
REMARK    3  A    between atoms: O_4  and  C_5
REMARK    4  A    between atoms: C_8  and  C_9
REMARK    5  A    between atoms: C_9  and  O_11
REMARK    6  A    between atoms: O_11  and  C_12
REMARK    7  A    between atoms: C_12  and  C_13
REMARK    8  A    between atoms: C_13  and  N_14
REMARK    9  A    between atoms: N_14  and  C_15
REMARK   10  A    between atoms: N_14  and  C_17
REMARK                            x       y       z     vdW  Elec       q    Type
REMARK                         _______ _______ _______ _____ _____    ______ ____
ROOT
ATOM      1  C   UNL     1       2.146   5.738  -7.965  0.00  0.00    +0.155 A 
ATOM      2  C   UNL     1       1.621   6.880  -7.396  0.00  0.00    +0.123 A 
ATOM      3  N   UNL     1       2.112   8.124  -7.898  0.00  0.00    -0.125 NA
ATOM      4  C   UNL     1       0.885   6.781  -6.235  0.00  0.00    +0.028 A 
ATOM      5  C   UNL     1       0.818   5.597  -5.548  0.00  0.00    +0.077 A 
ATOM      6  C   UNL     1       1.666   4.566  -5.923  0.00  0.00    +0.010 A 
ATOM      7  C   UNL     1       2.136   4.567  -7.218  0.00  0.00    +0.039 A 
ENDROOT
BRANCH   5   8
ATOM      8  C   UNL     1       0.038   5.406  -4.338  0.00  0.00    +0.341 C 
ATOM      9  O   UNL     1      -1.209   5.567  -4.321  0.00  0.00    -0.245 OA
BRANCH   8  10
ATOM     10  O   UNL     1       0.722   5.179  -3.156  0.00  0.00    -0.444 OA
BRANCH  10  11
ATOM     11  C   UNL     1       1.500   6.196  -2.547  0.00  0.00    +0.226 C 
BRANCH  11  12
ATOM     12  C   UNL     1       2.842   5.688  -2.093  0.00  0.00    +0.120 C 
BRANCH  12  13
ATOM     13  N   UNL     1       3.894   6.574  -2.519  0.00  0.00    -0.270 NA
BRANCH  13  14
ATOM     14  C   UNL     1       3.551   7.366  -3.672  0.00  0.00    +0.072 C 
ATOM     15  C   UNL     1       4.428   7.088  -4.867  0.00  0.00    +0.019 C 
ENDBRANCH  13  14
BRANCH  13  16
ATOM     16  C   UNL     1       4.406   7.358  -1.424  0.00  0.00    +0.072 C 
ATOM     17  C   UNL     1       4.588   6.419  -0.247  0.00  0.00    +0.019 C 
ENDBRANCH  13  16
ENDBRANCH  12  13
ENDBRANCH  11  12
ENDBRANCH  10  11
ENDBRANCH   8  10
ENDBRANCH   5   8
BRANCH   1  18
ATOM     18  O   UNL     1       2.340   5.716  -9.339  0.00  0.00    -0.474 OA
BRANCH  18  19
ATOM     19  C   UNL     1       3.521   5.157  -9.856  0.00  0.00    +0.205 C 
BRANCH  19  21
ATOM     20  C   UNL     1       5.639   5.274  -8.593  0.00  0.00    +0.004 C 
ATOM     21  C   UNL     1       4.718   6.033  -9.527  0.00  0.00    +0.047 C 
ENDBRANCH  19  21
ENDBRANCH  18  19
ENDBRANCH   1  18
TORSDOF 10
ENDMDL
MODEL 8
REMARK VINA RESULT:      -5.7      2.744      4.675
REMARK  Name = 
REMARK  10 active torsions:
REMARK  status: ('A' for Active; 'I' for Inactive)
REMARK    1  A    between atoms: C_2  and  C_3
REMARK    2  A    between atoms: C_3  and  O_4
REMARK    3  A    between atoms: O_4  and  C_5
REMARK    4  A    between atoms: C_8  and  C_9
REMARK    5  A    between atoms: C_9  and  O_11
REMARK    6  A    between atoms: O_11  and  C_12
REMARK    7  A    between atoms: C_12  and  C_13
REMARK    8  A    between atoms: C_13  and  N_14
REMARK    9  A    between atoms: N_14  and  C_15
REMARK   10  A    between atoms: N_14  and  C_17
REMARK                            x       y       z     vdW  Elec       q    Type
REMARK                         _______ _______ _______ _____ _____    ______ ____
ROOT
ATOM      1  C   UNL     1       6.674   6.175  -9.943  0.00  0.00    +0.155 A 
ATOM      2  C   UNL     1       5.613   6.814 -10.550  0.00  0.00    +0.123 A 
ATOM      3  N   UNL     1       5.919   8.004 -11.278  0.00  0.00    -0.125 NA
ATOM      4  C   UNL     1       4.325   6.451 -10.218  0.00  0.00    +0.028 A 
ATOM      5  C   UNL     1       4.086   5.597  -9.175  0.00  0.00    +0.077 A 
ATOM      6  C   UNL     1       5.138   5.273  -8.331  0.00  0.00    +0.010 A 
ATOM      7  C   UNL     1       6.415   5.375  -8.837  0.00  0.00    +0.039 A 
ENDROOT
BRANCH   5   8
ATOM      8  C   UNL     1       2.762   5.143  -8.787  0.00  0.00    +0.341 C 
ATOM      9  O   UNL     1       2.389   5.137  -7.586  0.00  0.00    -0.245 OA
BRANCH   8  10
ATOM     10  O   UNL     1       1.961   4.575  -9.762  0.00  0.00    -0.444 OA
BRANCH  10  11
ATOM     11  C   UNL     1       0.794   5.230 -10.232  0.00  0.00    +0.226 C 
BRANCH  11  12
ATOM     12  C   UNL     1       0.492   4.891 -11.668  0.00  0.00    +0.120 C 
BRANCH  12  13
ATOM     13  N   UNL     1       1.043   5.885 -12.552  0.00  0.00    -0.270 NA
BRANCH  13  14
ATOM     14  C   UNL     1       1.162   5.441 -13.917  0.00  0.00    +0.072 C 
ATOM     15  C   UNL     1       0.769   3.998 -14.111  0.00  0.00    +0.019 C 
ENDBRANCH  13  14
BRANCH  13  16
ATOM     16  C   UNL     1       0.362   7.148 -12.424  0.00  0.00    +0.072 C 
ATOM     17  C   UNL     1       0.607   7.921 -13.706  0.00  0.00    +0.019 C 
ENDBRANCH  13  16
ENDBRANCH  12  13
ENDBRANCH  11  12
ENDBRANCH  10  11
ENDBRANCH   8  10
ENDBRANCH   5   8
BRANCH   1  18
ATOM     18  O   UNL     1       7.871   6.078 -10.639  0.00  0.00    -0.474 OA
BRANCH  18  19
ATOM     19  C   UNL     1       7.988   5.135 -11.674  0.00  0.00    +0.205 C 
BRANCH  19  21
ATOM     20  C   UNL     1       6.997   5.584 -13.890  0.00  0.00    +0.004 C 
ATOM     21  C   UNL     1       8.206   5.827 -13.009  0.00  0.00    +0.047 C 
ENDBRANCH  19  21
ENDBRANCH  18  19
ENDBRANCH   1  18
TORSDOF 10
ENDMDL
MODEL 9
REMARK VINA RESULT:      -5.6      3.301      4.645
REMARK  Name = 
REMARK  10 active torsions:
REMARK  status: ('A' for Active; 'I' for Inactive)
REMARK    1  A    between atoms: C_2  and  C_3
REMARK    2  A    between atoms: C_3  and  O_4
REMARK    3  A    between atoms: O_4  and  C_5
REMARK    4  A    between atoms: C_8  and  C_9
REMARK    5  A    between atoms: C_9  and  O_11
REMARK    6  A    between atoms: O_11  and  C_12
REMARK    7  A    between atoms: C_12  and  C_13
REMARK    8  A    between atoms: C_13  and  N_14
REMARK    9  A    between atoms: N_14  and  C_15
REMARK   10  A    between atoms: N_14  and  C_17
REMARK                            x       y       z     vdW  Elec       q    Type
REMARK                         _______ _______ _______ _____ _____    ______ ____
ROOT
ATOM      1  C   UNL     1       3.662   5.896  -8.528  0.00  0.00    +0.155 A 
ATOM      2  C   UNL     1       2.455   6.455  -8.161  0.00  0.00    +0.123 A 
ATOM      3  N   UNL     1       1.801   7.258  -9.144  0.00  0.00    -0.125 NA
ATOM      4  C   UNL     1       2.081   6.444  -6.834  0.00  0.00    +0.028 A 
ATOM      5  C   UNL     1       2.961   6.048  -5.862  0.00  0.00    +0.077 A 
ATOM      6  C   UNL     1       4.290   5.862  -6.210  0.00  0.00    +0.010 A 
ATOM      7  C   UNL     1       4.570   5.575  -7.528  0.00  0.00    +0.039 A 
ENDROOT
BRANCH   5   8
ATOM      8  C   UNL     1       2.631   5.978  -4.450  0.00  0.00    +0.341 C 
ATOM      9  O   UNL     1       3.166   5.136  -3.685  0.00  0.00    -0.245 OA
BRANCH   8  10
ATOM     10  O   UNL     1       1.596   6.774  -3.986  0.00  0.00    -0.444 OA
BRANCH  10  11
ATOM     11  C   UNL     1       0.478   6.214  -3.316  0.00  0.00    +0.226 C 
BRANCH  11  12
ATOM     12  C   UNL     1      -0.414   5.441  -4.249  0.00  0.00    +0.120 C 
BRANCH  12  13
ATOM     13  N   UNL     1      -1.756   5.961  -4.219  0.00  0.00    -0.270 NA
BRANCH  13  14
ATOM     14  C   UNL     1      -1.998   6.873  -3.131  0.00  0.00    +0.072 C 
ATOM     15  C   UNL     1      -3.268   6.572  -2.375  0.00  0.00    +0.019 C 
ENDBRANCH  13  14
BRANCH  13  16
ATOM     16  C   UNL     1      -2.151   6.489  -5.500  0.00  0.00    +0.072 C 
ATOM     17  C   UNL     1      -1.662   5.516  -6.556  0.00  0.00    +0.019 C 
ENDBRANCH  13  16
ENDBRANCH  12  13
ENDBRANCH  11  12
ENDBRANCH  10  11
ENDBRANCH   8  10
ENDBRANCH   5   8
BRANCH   1  18
ATOM     18  O   UNL     1       3.782   5.372  -9.808  0.00  0.00    -0.474 OA
BRANCH  18  19
ATOM     19  C   UNL     1       4.923   5.676 -10.569  0.00  0.00    +0.205 C 
BRANCH  19  21
ATOM     20  C   UNL     1       6.458   7.556 -11.022  0.00  0.00    +0.004 C 
ATOM     21  C   UNL     1       5.004   7.169 -10.841  0.00  0.00    +0.047 C 
ENDBRANCH  19  21
ENDBRANCH  18  19
ENDBRANCH   1  18
TORSDOF 10
ENDMDL
