MODEL 1
REMARK VINA RESULT:       3.5      0.000      0.000
REMARK  Name = 
REMARK  4 active torsions:
REMARK  status: ('A' for Active; 'I' for Inactive)
REMARK    1  A    between atoms: O_2  and  C_3
REMARK    2  A    between atoms: C_18  and  O_19
REMARK    3  A    between atoms: O_19  and  C_20
REMARK    4  A    between atoms: C_41  and  O_42
REMARK                            x       y       z     vdW  Elec       q    Type
REMARK                         _______ _______ _______ _____ _____    ______ ____
ROOT
ATOM      1  C   UNL     1       5.474  14.257   0.329  0.00  0.00    +0.177 A 
ATOM      2  C   UNL     1       5.283  14.824   1.583  0.00  0.00    +0.229 A 
ATOM      3  O   UNL     1       6.036  15.954   1.926  0.00  0.00    -0.283 OA
ATOM      4  C   UNL     1       4.539  14.115   2.520  0.00  0.00    +0.041 A 
ATOM      5  C   UNL     1       4.159  12.792   2.301  0.00  0.00    -0.020 A 
ATOM      6  C   UNL     1       4.434  11.721   3.316  0.00  0.00    +0.045 C 
ATOM      7  C   UNL     1       5.128  10.568   2.689  0.00  0.00    +0.094 C 
ATOM      8  N   UNL     1       5.084  10.520   1.227  0.00  0.00    -0.205 NA
ATOM      9  C   UNL     1       3.809  10.982   0.723  0.00  0.00    +0.177 C 
ATOM     10  C   UNL     1       2.878  10.319   1.683  0.00  0.00    +0.336 C 
ATOM     11  O   UNL     1       1.820  10.906   2.070  0.00  0.00    -0.248 OA
ATOM     12  O   UNL     1       3.028   8.925   1.734  0.00  0.00    -0.445 OA
ATOM     13  C   UNL     1       3.883   8.172   0.946  0.00  0.00    +0.229 C 
ATOM     14  C   UNL     1       3.125   6.802   0.438  0.00  0.00    +0.129 C 
ATOM     15  N   UNL     1       3.342   7.032  -1.111  0.00  0.00    -0.240 NA
ATOM     16  C   UNL     1       3.778   5.588  -1.582  0.00  0.00    +0.228 C 
ATOM     17  O   UNL     1       3.914   4.911  -0.223  0.00  0.00    -0.203 OA
ATOM     18  C   UNL     1       2.250   4.804  -1.779  0.00  0.00    +0.109 C 
ATOM     19  N   UNL     1       1.615   5.383  -3.076  0.00  0.00    -0.265 NA
ATOM     20  C   UNL     1       2.164   6.820  -3.311  0.00  0.00    +0.099 C 
ATOM     21  C   UNL     1       3.631   6.193  -3.524  0.00  0.00    +0.032 A 
ATOM     22  C   UNL     1       4.212   6.858  -4.608  0.00  0.00    +0.226 A 
ATOM     23  O   UNL     1       4.310   8.230  -4.653  0.00  0.00    -0.284 OA
ATOM     24  C   UNL     1       4.777   6.228  -5.686  0.00  0.00    +0.173 A 
ATOM     25  C   UNL     1       4.889   4.863  -5.683  0.00  0.00    +0.015 A 
ATOM     26  C   UNL     1       5.380   4.123  -6.890  0.00  0.00    +0.034 C 
ATOM     27  C   UNL     1       4.679   4.222  -4.497  0.00  0.00    -0.006 A 
ATOM     28  C   UNL     1       3.669   4.798  -3.735  0.00  0.00    -0.020 A 
ATOM     29  C   UNL     1       0.227   5.544  -2.738  0.00  0.00    +0.090 C 
ATOM     30  C   UNL     1       3.073   3.783  -2.779  0.00  0.00    +0.046 C 
ATOM     31  C   UNL     1       1.917   6.912  -1.631  0.00  0.00    +0.093 C 
ATOM     32  C   UNL     1       1.476   8.541  -1.646  0.00  0.00    +0.089 C 
ATOM     33  C   UNL     1       1.084   8.340  -0.146  0.00  0.00    +0.024 A 
ATOM     34  C   UNL     1      -0.313   8.302  -0.024  0.00  0.00    +0.144 A 
ATOM     35  C   UNL     1      -0.916   7.821   1.135  0.00  0.00    +0.050 A 
ATOM     36  C   UNL     1      -0.176   7.086   2.056  0.00  0.00    +0.175 A 
ATOM     37  O   UNL     1      -0.504   6.181   3.073  0.00  0.00    -0.435 OA
ATOM     38  C   UNL     1       0.685   5.780   3.748  0.00  0.00    +0.429 C 
ATOM     39  O   UNL     1       1.691   6.456   2.997  0.00  0.00    -0.435 OA
ATOM     40  C   UNL     1       1.168   6.998   1.844  0.00  0.00    +0.173 A 
ATOM     41  C   UNL     1      -2.379   7.904   1.378  0.00  0.00    +0.038 C 
ATOM     42  S   UNL     1       3.116   9.456  -1.587  0.00  0.00    -0.133 S 
ATOM     43  C   UNL     1       1.649   7.409   0.607  0.00  0.00    +0.033 A 
ATOM     44  C   UNL     1       3.373  10.746  -0.601  0.00  0.00    +0.089 C 
ATOM     45  C   UNL     1       3.936  12.462   0.967  0.00  0.00    +0.002 A 
ATOM     46  C   UNL     1       4.741  13.120   0.040  0.00  0.00    +0.037 A 
ENDROOT
BRANCH   1  48
ATOM     47  C   UNL     1       6.878  14.772  -1.608  0.00  0.00    +0.253 C 
ATOM     48  O   UNL     1       6.700  14.545  -0.281  0.00  0.00    -0.468 OA
ENDBRANCH   1  48
BRANCH  24  49
ATOM     49  O   UNL     1       4.939   6.823  -6.948  0.00  0.00    -0.469 OA
ATOM     50  C   UNL     1       3.772   6.726  -7.767  0.00  0.00    +0.253 C 
ENDBRANCH  24  49
BRANCH  34  51
ATOM     51  O   UNL     1      -1.187   8.467  -1.099  0.00  0.00    -0.425 OA
BRANCH  51  52
ATOM     52  C   UNL     1      -1.876   7.346  -1.579  0.00  0.00    +0.322 C 
ATOM     53  O   UNL     1      -1.881   6.239  -1.006  0.00  0.00    -0.250 OA
ATOM     54  C   UNL     1      -2.423   7.410  -2.956  0.00  0.00    +0.122 C 
ENDBRANCH  51  52
ENDBRANCH  34  51
TORSDOF 4
ENDMDL
