MODEL 1
REMARK VINA RESULT:      -8.3      0.000      0.000
REMARK  Name = 
REMARK  4 active torsions:
REMARK  status: ('A' for Active; 'I' for Inactive)
REMARK    1  A    between atoms: CA_6  and  N_7
REMARK    2  A    between atoms: C_8  and  C_10
REMARK    3  A    between atoms: C_10  and  C_11
REMARK    4  A    between atoms: CA_20  and  C_21
REMARK                            x       y       z     vdW  Elec       q    Type
REMARK                         _______ _______ _______ _____ _____    ______ ____
ROOT
ATOM      1  C   UNL     1       4.600   6.176  -3.731  0.00  0.00    +0.013 C 
ATOM      2  C   UNL     1       4.308   6.601  -4.358  0.00  0.00    +0.068 C 
ATOM      3  CA  UNL     1       2.728   7.002  -4.096  0.00  0.00    +0.189 C 
ATOM      4  N   UNL     1       2.246   6.810  -5.581  0.00  0.00    -0.259 N 
ATOM      5  C   UNL     1       2.585   5.360  -5.868  0.00  0.00    +0.153 C 
ATOM      6  CA  UNL     1       1.955   5.791  -7.359  0.00  0.00    +0.200 C 
ATOM      7  C   UNL     1       2.466   7.255  -6.937  0.00  0.00    +0.249 C 
ATOM      8  O   UNL     1       2.153   8.266  -7.575  0.00  0.00    -0.273 OA
ATOM      9  S   UNL     1       4.396   5.960  -5.989  0.00  0.00    -0.118 S 
ATOM     10  C   UNL     1       5.072   7.916  -4.281  0.00  0.00    +0.013 C 
ENDROOT
BRANCH   3  11
ATOM     11  C   UNL     1       2.263   5.519  -3.632  0.00  0.00    +0.383 C 
ATOM     12  OXT UNL     1       0.885   5.414  -3.867  0.00  0.00    -0.244 OA
ATOM     13  O   UNL     1       2.791   5.039  -2.632  0.00  0.00    -0.244 OA
ENDBRANCH   3  11
BRANCH   6  14
ATOM     14  N   UNL     1       3.252   5.433  -8.188  0.00  0.00    -0.195 NA
ATOM     15  C   UNL     1       3.095   5.578  -9.585  0.00  0.00    +0.246 C 
ATOM     16  O   UNL     1       1.936   5.602 -10.098  0.00  0.00    -0.273 OA
BRANCH  15  17
ATOM     17  C   UNL     1       4.160   4.963 -10.440  0.00  0.00    +0.113 C 
BRANCH  17  18
ATOM     18  C   UNL     1       5.317   5.907 -10.527  0.00  0.00    -0.013 A 
ATOM     19  C   UNL     1       5.220   7.119 -11.161  0.00  0.00    -0.004 A 
ATOM     20  C   UNL     1       6.297   7.987 -11.288  0.00  0.00    -0.000 A 
ATOM     21  C   UNL     1       7.501   7.617 -10.703  0.00  0.00    -0.000 A 
ATOM     22  C   UNL     1       7.553   6.475  -9.954  0.00  0.00    -0.000 A 
ATOM     23  C   UNL     1       6.445   5.669  -9.756  0.00  0.00    -0.004 A 
ENDBRANCH  17  18
ENDBRANCH  15  17
ENDBRANCH   6  14
TORSDOF 4
ENDMDL
MODEL 2
REMARK VINA RESULT:      -8.0      4.135      6.620
REMARK  Name = 
REMARK  4 active torsions:
REMARK  status: ('A' for Active; 'I' for Inactive)
REMARK    1  A    between atoms: CA_6  and  N_7
REMARK    2  A    between atoms: C_8  and  C_10
REMARK    3  A    between atoms: C_10  and  C_11
REMARK    4  A    between atoms: CA_20  and  C_21
REMARK                            x       y       z     vdW  Elec       q    Type
REMARK                         _______ _______ _______ _____ _____    ______ ____
ROOT
ATOM      1  C   UNL     1       2.784   6.475  -1.760  0.00  0.00    +0.013 C 
ATOM      2  C   UNL     1       2.730   5.910  -2.339  0.00  0.00    +0.068 C 
ATOM      3  CA  UNL     1       4.016   6.013  -3.369  0.00  0.00    +0.189 C 
ATOM      4  N   UNL     1       3.220   5.687  -4.686  0.00  0.00    -0.259 N 
ATOM      5  C   UNL     1       2.169   6.781  -4.730  0.00  0.00    +0.153 C 
ATOM      6  CA  UNL     1       1.738   5.933  -6.110  0.00  0.00    +0.200 C 
ATOM      7  C   UNL     1       2.385   4.693  -5.319  0.00  0.00    +0.249 C 
ATOM      8  O   UNL     1       2.602   3.608  -5.869  0.00  0.00    -0.273 OA
ATOM      9  S   UNL     1       1.296   5.796  -3.345  0.00  0.00    -0.118 S 
ATOM     10  C   UNL     1       2.929   4.605  -1.581  0.00  0.00    +0.013 C 
ENDROOT
BRANCH   3  11
ATOM     11  C   UNL     1       3.927   7.619  -3.575  0.00  0.00    +0.383 C 
ATOM     12  OXT UNL     1       4.642   7.938  -4.737  0.00  0.00    -0.244 OA
ATOM     13  O   UNL     1       3.963   8.329  -2.572  0.00  0.00    -0.244 OA
ENDBRANCH   3  11
BRANCH   6  14
ATOM     14  N   UNL     1       0.258   5.625  -5.650  0.00  0.00    -0.195 NA
ATOM     15  C   UNL     1      -0.635   5.392  -6.720  0.00  0.00    +0.246 C 
ATOM     16  O   UNL     1      -0.347   5.785  -7.891  0.00  0.00    -0.273 OA
BRANCH  15  17
ATOM     17  C   UNL     1      -2.094   5.408  -6.382  0.00  0.00    +0.113 C 
BRANCH  17  18
ATOM     18  C   UNL     1      -2.271   6.013  -5.025  0.00  0.00    -0.013 A 
ATOM     19  C   UNL     1      -2.091   7.352  -4.797  0.00  0.00    -0.004 A 
ATOM     20  C   UNL     1      -2.210   7.921  -3.536  0.00  0.00    -0.000 A 
ATOM     21  C   UNL     1      -2.571   7.092  -2.481  0.00  0.00    -0.000 A 
ATOM     22  C   UNL     1      -2.885   5.787  -2.739  0.00  0.00    -0.000 A 
ATOM     23  C   UNL     1      -2.855   5.258  -4.019  0.00  0.00    -0.004 A 
ENDBRANCH  17  18
ENDBRANCH  15  17
ENDBRANCH   6  14
TORSDOF 4
ENDMDL
MODEL 3
REMARK VINA RESULT:      -7.6      1.647      2.163
REMARK  Name = 
REMARK  4 active torsions:
REMARK  status: ('A' for Active; 'I' for Inactive)
REMARK    1  A    between atoms: CA_6  and  N_7
REMARK    2  A    between atoms: C_8  and  C_10
REMARK    3  A    between atoms: C_10  and  C_11
REMARK    4  A    between atoms: CA_20  and  C_21
REMARK                            x       y       z     vdW  Elec       q    Type
REMARK                         _______ _______ _______ _____ _____    ______ ____
ROOT
ATOM      1  C   UNL     1       3.184   4.518  -5.505  0.00  0.00    +0.013 C 
ATOM      2  C   UNL     1       3.168   5.246  -5.862  0.00  0.00    +0.068 C 
ATOM      3  CA  UNL     1       1.681   5.942  -5.683  0.00  0.00    +0.189 C 
ATOM      4  N   UNL     1       1.618   6.600  -7.111  0.00  0.00    -0.259 N 
ATOM      5  C   UNL     1       1.752   5.412  -8.043  0.00  0.00    +0.153 C 
ATOM      6  CA  UNL     1       1.666   6.640  -9.179  0.00  0.00    +0.200 C 
ATOM      7  C   UNL     1       2.296   7.521  -7.992  0.00  0.00    +0.249 C 
ATOM      8  O   UNL     1       2.370   8.753  -8.061  0.00  0.00    -0.273 OA
ATOM      9  S   UNL     1       3.599   5.422  -7.553  0.00  0.00    -0.118 S 
ATOM     10  C   UNL     1       4.106   6.084  -5.003  0.00  0.00    +0.013 C 
ENDROOT
BRANCH   3  11
ATOM     11  C   UNL     1       0.837   4.630  -6.125  0.00  0.00    +0.383 C 
ATOM     12  OXT UNL     1      -0.524   4.953  -6.044  0.00  0.00    -0.244 OA
ATOM     13  O   UNL     1       1.266   3.530  -5.783  0.00  0.00    -0.244 OA
ENDBRANCH   3  11
BRANCH   6  14
ATOM     14  N   UNL     1       3.058   6.323  -9.859  0.00  0.00    -0.195 NA
ATOM     15  C   UNL     1       2.997   6.231 -11.268  0.00  0.00    +0.246 C 
ATOM     16  O   UNL     1       1.887   6.033 -11.848  0.00  0.00    -0.273 OA
BRANCH  15  17
ATOM     17  C   UNL     1       4.188   5.630 -11.946  0.00  0.00    +0.113 C 
BRANCH  17  18
ATOM     18  C   UNL     1       5.431   6.204 -11.342  0.00  0.00    -0.013 A 
ATOM     19  C   UNL     1       6.261   5.461 -10.544  0.00  0.00    -0.004 A 
ATOM     20  C   UNL     1       7.395   5.990  -9.942  0.00  0.00    -0.000 A 
ATOM     21  C   UNL     1       7.711   7.317 -10.207  0.00  0.00    -0.000 A 
ATOM     22  C   UNL     1       6.958   8.011 -11.112  0.00  0.00    -0.000 A 
ATOM     23  C   UNL     1       5.888   7.439 -11.778  0.00  0.00    -0.004 A 
ENDBRANCH  17  18
ENDBRANCH  15  17
ENDBRANCH   6  14
TORSDOF 4
ENDMDL
MODEL 4
REMARK VINA RESULT:      -7.5      2.210      3.270
REMARK  Name = 
REMARK  4 active torsions:
REMARK  status: ('A' for Active; 'I' for Inactive)
REMARK    1  A    between atoms: CA_6  and  N_7
REMARK    2  A    between atoms: C_8  and  C_10
REMARK    3  A    between atoms: C_10  and  C_11
REMARK    4  A    between atoms: CA_20  and  C_21
REMARK                            x       y       z     vdW  Elec       q    Type
REMARK                         _______ _______ _______ _____ _____    ______ ____
ROOT
ATOM      1  C   UNL     1      -0.192   6.624  -5.809  0.00  0.00    +0.013 C 
ATOM      2  C   UNL     1       0.153   6.079  -6.301  0.00  0.00    +0.068 C 
ATOM      3  CA  UNL     1       0.778   4.826  -5.426  0.00  0.00    +0.189 C 
ATOM      4  N   UNL     1       2.067   4.618  -6.304  0.00  0.00    -0.259 N 
ATOM      5  C   UNL     1       2.756   5.967  -6.227  0.00  0.00    +0.153 C 
ATOM      6  CA  UNL     1       3.827   5.173  -7.240  0.00  0.00    +0.200 C 
ATOM      7  C   UNL     1       2.521   4.328  -7.643  0.00  0.00    +0.249 C 
ATOM      8  O   UNL     1       2.592   3.300  -8.326  0.00  0.00    -0.273 OA
ATOM      9  S   UNL     1       1.400   6.564  -7.436  0.00  0.00    -0.118 S 
ATOM     10  C   UNL     1      -1.028   5.486  -7.058  0.00  0.00    +0.013 C 
ENDROOT
BRANCH   3  11
ATOM     11  C   UNL     1       1.533   5.756  -4.333  0.00  0.00    +0.383 C 
ATOM     12  OXT UNL     1       2.633   5.035  -3.848  0.00  0.00    -0.244 OA
ATOM     13  O   UNL     1       0.840   6.457  -3.599  0.00  0.00    -0.244 OA
ENDBRANCH   3  11
BRANCH   6  14
ATOM     14  N   UNL     1       3.697   6.194  -8.439  0.00  0.00    -0.195 NA
ATOM     15  C   UNL     1       4.676   6.022  -9.444  0.00  0.00    +0.246 C 
ATOM     16  O   UNL     1       5.746   5.389  -9.193  0.00  0.00    -0.273 OA
BRANCH  15  17
ATOM     17  C   UNL     1       4.811   7.135 -10.437  0.00  0.00    +0.113 C 
BRANCH  17  18
ATOM     18  C   UNL     1       5.590   6.642 -11.616  0.00  0.00    -0.013 A 
ATOM     19  C   UNL     1       4.986   6.016 -12.675  0.00  0.00    -0.004 A 
ATOM     20  C   UNL     1       5.700   5.514 -13.755  0.00  0.00    -0.000 A 
ATOM     21  C   UNL     1       7.076   5.705 -13.769  0.00  0.00    -0.000 A 
ATOM     22  C   UNL     1       7.653   6.451 -12.780  0.00  0.00    -0.000 A 
ATOM     23  C   UNL     1       6.914   7.026 -11.761  0.00  0.00    -0.004 A 
ENDBRANCH  17  18
ENDBRANCH  15  17
ENDBRANCH   6  14
TORSDOF 4
ENDMDL
MODEL 5
REMARK VINA RESULT:      -7.5      2.994      7.282
REMARK  Name = 
REMARK  4 active torsions:
REMARK  status: ('A' for Active; 'I' for Inactive)
REMARK    1  A    between atoms: CA_6  and  N_7
REMARK    2  A    between atoms: C_8  and  C_10
REMARK    3  A    between atoms: C_10  and  C_11
REMARK    4  A    between atoms: CA_20  and  C_21
REMARK                            x       y       z     vdW  Elec       q    Type
REMARK                         _______ _______ _______ _____ _____    ______ ____
ROOT
ATOM      1  C   UNL     1       2.254   5.315 -12.327  0.00  0.00    +0.013 C 
ATOM      2  C   UNL     1       2.217   5.846 -11.715  0.00  0.00    +0.068 C 
ATOM      3  CA  UNL     1       3.650   6.650 -11.559  0.00  0.00    +0.189 C 
ATOM      4  N   UNL     1       3.658   6.702  -9.987  0.00  0.00    -0.259 N 
ATOM      5  C   UNL     1       3.604   5.238  -9.595  0.00  0.00    +0.153 C 
ATOM      6  CA  UNL     1       3.594   5.928  -8.068  0.00  0.00    +0.200 C 
ATOM      7  C   UNL     1       2.910   7.161  -8.840  0.00  0.00    +0.249 C 
ATOM      8  O   UNL     1       2.747   8.260  -8.300  0.00  0.00    -0.273 OA
ATOM      9  S   UNL     1       1.763   5.320 -10.103  0.00  0.00    -0.118 S 
ATOM     10  C   UNL     1       1.226   6.890 -12.211  0.00  0.00    +0.013 C 
ENDROOT
BRANCH   3  11
ATOM     11  C   UNL     1       4.583   5.326 -11.634  0.00  0.00    +0.383 C 
ATOM     12  OXT UNL     1       5.718   5.561 -10.845  0.00  0.00    -0.244 OA
ATOM     13  O   UNL     1       4.649   4.730 -12.707  0.00  0.00    -0.244 OA
ENDBRANCH   3  11
BRANCH   6  14
ATOM     14  N   UNL     1       2.225   5.283  -7.612  0.00  0.00    -0.195 NA
ATOM     15  C   UNL     1       1.954   5.435  -6.234  0.00  0.00    +0.246 C 
ATOM     16  O   UNL     1       2.893   5.702  -5.423  0.00  0.00    -0.273 OA
BRANCH  15  17
ATOM     17  C   UNL     1       0.851   4.589  -5.677  0.00  0.00    +0.113 C 
BRANCH  17  18
ATOM     18  C   UNL     1      -0.402   5.405  -5.617  0.00  0.00    -0.013 A 
ATOM     19  C   UNL     1      -0.533   6.473  -4.768  0.00  0.00    -0.004 A 
ATOM     20  C   UNL     1      -1.705   7.212  -4.669  0.00  0.00    -0.000 A 
ATOM     21  C   UNL     1      -2.761   6.871  -5.505  0.00  0.00    -0.000 A 
ATOM     22  C   UNL     1      -2.575   5.897  -6.445  0.00  0.00    -0.000 A 
ATOM     23  C   UNL     1      -1.369   5.234  -6.596  0.00  0.00    -0.004 A 
ENDBRANCH  17  18
ENDBRANCH  15  17
ENDBRANCH   6  14
TORSDOF 4
ENDMDL
MODEL 6
REMARK VINA RESULT:      -7.0      5.236      6.722
REMARK  Name = 
REMARK  4 active torsions:
REMARK  status: ('A' for Active; 'I' for Inactive)
REMARK    1  A    between atoms: CA_6  and  N_7
REMARK    2  A    between atoms: C_8  and  C_10
REMARK    3  A    between atoms: C_10  and  C_11
REMARK    4  A    between atoms: CA_20  and  C_21
REMARK                            x       y       z     vdW  Elec       q    Type
REMARK                         _______ _______ _______ _____ _____    ______ ____
ROOT
ATOM      1  C   UNL     1       4.126   6.845  -2.555  0.00  0.00    +0.013 C 
ATOM      2  C   UNL     1       3.534   7.018  -2.027  0.00  0.00    +0.068 C 
ATOM      3  CA  UNL     1       3.584   5.979  -0.745  0.00  0.00    +0.189 C 
ATOM      4  N   UNL     1       2.027   5.838  -0.567  0.00  0.00    -0.259 N 
ATOM      5  C   UNL     1       1.575   5.304  -1.913  0.00  0.00    +0.153 C 
ATOM      6  CA  UNL     1       0.087   5.421  -1.153  0.00  0.00    +0.200 C 
ATOM      7  C   UNL     1       0.817   6.587  -0.323  0.00  0.00    +0.249 C 
ATOM      8  O   UNL     1       0.304   7.095   0.680  0.00  0.00    -0.273 OA
ATOM      9  S   UNL     1       1.861   7.083  -2.551  0.00  0.00    -0.118 S 
ATOM     10  C   UNL     1       3.948   8.370  -1.462  0.00  0.00    +0.013 C 
ENDROOT
BRANCH   3  11
ATOM     11  C   UNL     1       3.720   4.632  -1.637  0.00  0.00    +0.383 C 
ATOM     12  OXT UNL     1       3.621   3.536  -0.769  0.00  0.00    -0.244 OA
ATOM     13  O   UNL     1       4.507   4.646  -2.581  0.00  0.00    -0.244 OA
ENDBRANCH   3  11
BRANCH   6  14
ATOM     14  N   UNL     1      -0.556   6.399  -2.216  0.00  0.00    -0.195 NA
ATOM     15  C   UNL     1      -1.885   6.069  -2.564  0.00  0.00    +0.246 C 
ATOM     16  O   UNL     1      -2.334   4.904  -2.343  0.00  0.00    -0.273 OA
BRANCH  15  17
ATOM     17  C   UNL     1      -2.440   6.747  -3.778  0.00  0.00    +0.113 C 
BRANCH  17  18
ATOM     18  C   UNL     1      -1.634   6.342  -4.972  0.00  0.00    -0.013 A 
ATOM     19  C   UNL     1      -2.134   5.505  -5.936  0.00  0.00    -0.004 A 
ATOM     20  C   UNL     1      -1.384   5.085  -7.027  0.00  0.00    -0.000 A 
ATOM     21  C   UNL     1      -0.092   5.581  -7.156  0.00  0.00    -0.000 A 
ATOM     22  C   UNL     1       0.350   6.522  -6.268  0.00  0.00    -0.000 A 
ATOM     23  C   UNL     1      -0.445   7.002  -5.242  0.00  0.00    -0.004 A 
ENDBRANCH  17  18
ENDBRANCH  15  17
ENDBRANCH   6  14
TORSDOF 4
ENDMDL
MODEL 7
REMARK VINA RESULT:      -7.0      1.987      2.713
REMARK  Name = 
REMARK  4 active torsions:
REMARK  status: ('A' for Active; 'I' for Inactive)
REMARK    1  A    between atoms: CA_6  and  N_7
REMARK    2  A    between atoms: C_8  and  C_10
REMARK    3  A    between atoms: C_10  and  C_11
REMARK    4  A    between atoms: CA_20  and  C_21
REMARK                            x       y       z     vdW  Elec       q    Type
REMARK                         _______ _______ _______ _____ _____    ______ ____
ROOT
ATOM      1  C   UNL     1       2.202   6.702  -5.216  0.00  0.00    +0.013 C 
ATOM      2  C   UNL     1       1.779   6.701  -5.908  0.00  0.00    +0.068 C 
ATOM      3  CA  UNL     1       0.989   5.263  -6.098  0.00  0.00    +0.189 C 
ATOM      4  N   UNL     1       1.193   5.150  -7.654  0.00  0.00    -0.259 N 
ATOM      5  C   UNL     1       2.702   5.171  -7.805  0.00  0.00    +0.153 C 
ATOM      6  CA  UNL     1       2.269   5.082  -9.420  0.00  0.00    +0.200 C 
ATOM      7  C   UNL     1       0.938   5.821  -8.906  0.00  0.00    +0.249 C 
ATOM      8  O   UNL     1      -0.057   5.952  -9.628  0.00  0.00    -0.273 OA
ATOM      9  S   UNL     1       2.566   7.042  -7.438  0.00  0.00    -0.118 S 
ATOM     10  C   UNL     1       0.683   7.727  -5.654  0.00  0.00    +0.013 C 
ENDROOT
BRANCH   3  11
ATOM     11  C   UNL     1       2.269   4.331  -5.747  0.00  0.00    +0.383 C 
ATOM     12  OXT UNL     1       2.034   3.063  -6.295  0.00  0.00    -0.244 OA
ATOM     13  O   UNL     1       2.802   4.478  -4.649  0.00  0.00    -0.244 OA
ENDBRANCH   3  11
BRANCH   6  14
ATOM     14  N   UNL     1       3.000   6.414  -9.854  0.00  0.00    -0.195 NA
ATOM     15  C   UNL     1       4.059   6.213 -10.768  0.00  0.00    +0.246 C 
ATOM     16  O   UNL     1       4.588   5.067 -10.891  0.00  0.00    -0.273 OA
BRANCH  15  17
ATOM     17  C   UNL     1       4.986   7.370 -10.975  0.00  0.00    +0.113 C 
BRANCH  17  18
ATOM     18  C   UNL     1       6.269   6.866 -11.557  0.00  0.00    -0.013 A 
ATOM     19  C   UNL     1       6.470   6.783 -12.910  0.00  0.00    -0.004 A 
ATOM     20  C   UNL     1       7.638   6.277 -13.465  0.00  0.00    -0.000 A 
ATOM     21  C   UNL     1       8.652   5.886 -12.599  0.00  0.00    -0.000 A 
ATOM     22  C   UNL     1       8.500   6.101 -11.258  0.00  0.00    -0.000 A 
ATOM     23  C   UNL     1       7.368   6.696 -10.728  0.00  0.00    -0.004 A 
ENDBRANCH  17  18
ENDBRANCH  15  17
ENDBRANCH   6  14
TORSDOF 4
ENDMDL
MODEL 8
REMARK VINA RESULT:      -7.0      3.013      7.560
REMARK  Name = 
REMARK  4 active torsions:
REMARK  status: ('A' for Active; 'I' for Inactive)
REMARK    1  A    between atoms: CA_6  and  N_7
REMARK    2  A    between atoms: C_8  and  C_10
REMARK    3  A    between atoms: C_10  and  C_11
REMARK    4  A    between atoms: CA_20  and  C_21
REMARK                            x       y       z     vdW  Elec       q    Type
REMARK                         _______ _______ _______ _____ _____    ______ ____
ROOT
ATOM      1  C   UNL     1       4.251   6.944  -9.939  0.00  0.00    +0.013 C 
ATOM      2  C   UNL     1       4.020   6.384  -9.400  0.00  0.00    +0.068 C 
ATOM      3  CA  UNL     1       3.445   5.042 -10.171  0.00  0.00    +0.189 C 
ATOM      4  N   UNL     1       2.285   4.732  -9.155  0.00  0.00    -0.259 N 
ATOM      5  C   UNL     1       1.451   5.999  -9.189  0.00  0.00    +0.153 C 
ATOM      6  CA  UNL     1       0.583   5.133  -8.047  0.00  0.00    +0.200 C 
ATOM      7  C   UNL     1       2.008   4.443  -7.768  0.00  0.00    +0.249 C 
ATOM      8  O   UNL     1       2.120   3.439  -7.056  0.00  0.00    -0.273 OA
ATOM      9  S   UNL     1       2.853   6.776  -8.149  0.00  0.00    -0.118 S 
ATOM     10  C   UNL     1       5.330   5.945  -8.760  0.00  0.00    +0.013 C 
ENDROOT
BRANCH   3  11
ATOM     11  C   UNL     1       2.484   5.850 -11.198  0.00  0.00    +0.383 C 
ATOM     12  OXT UNL     1       1.380   5.032 -11.478  0.00  0.00    -0.244 OA
ATOM     13  O   UNL     1       3.019   6.538 -12.064  0.00  0.00    -0.244 OA
ENDBRANCH   3  11
BRANCH   6  14
ATOM     14  N   UNL     1       0.727   6.204  -6.894  0.00  0.00    -0.195 NA
ATOM     15  C   UNL     1      -0.316   6.161  -5.942  0.00  0.00    +0.246 C 
ATOM     16  O   UNL     1      -1.418   5.600  -6.226  0.00  0.00    -0.273 OA
BRANCH  15  17
ATOM     17  C   UNL     1      -0.417   7.333  -5.015  0.00  0.00    +0.113 C 
BRANCH  17  18
ATOM     18  C   UNL     1      -1.023   6.879  -3.724  0.00  0.00    -0.013 A 
ATOM     19  C   UNL     1      -2.308   7.200  -3.372  0.00  0.00    -0.004 A 
ATOM     20  C   UNL     1      -2.869   6.824  -2.159  0.00  0.00    -0.000 A 
ATOM     21  C   UNL     1      -2.099   6.051  -1.299  0.00  0.00    -0.000 A 
ATOM     22  C   UNL     1      -0.871   5.617  -1.715  0.00  0.00    -0.000 A 
ATOM     23  C   UNL     1      -0.365   5.921  -2.967  0.00  0.00    -0.004 A 
ENDBRANCH  17  18
ENDBRANCH  15  17
ENDBRANCH   6  14
TORSDOF 4
ENDMDL
MODEL 9
REMARK VINA RESULT:      -6.9      2.823      3.890
REMARK  Name = 
REMARK  4 active torsions:
REMARK  status: ('A' for Active; 'I' for Inactive)
REMARK    1  A    between atoms: CA_6  and  N_7
REMARK    2  A    between atoms: C_8  and  C_10
REMARK    3  A    between atoms: C_10  and  C_11
REMARK    4  A    between atoms: CA_20  and  C_21
REMARK                            x       y       z     vdW  Elec       q    Type
REMARK                         _______ _______ _______ _____ _____    ______ ____
ROOT
ATOM      1  C   UNL     1       3.299   6.588  -7.412  0.00  0.00    +0.013 C 
ATOM      2  C   UNL     1       2.861   6.731  -8.080  0.00  0.00    +0.068 C 
ATOM      3  CA  UNL     1       1.620   5.649  -8.200  0.00  0.00    +0.189 C 
ATOM      4  N   UNL     1       1.684   5.474  -9.762  0.00  0.00    -0.259 N 
ATOM      5  C   UNL     1       3.099   4.980  -9.994  0.00  0.00    +0.153 C 
ATOM      6  CA  UNL     1       2.569   5.043 -11.582  0.00  0.00    +0.200 C 
ATOM      7  C   UNL     1       1.601   6.192 -11.011  0.00  0.00    +0.249 C 
ATOM      8  O   UNL     1       0.670   6.655 -11.680  0.00  0.00    -0.273 OA
ATOM      9  S   UNL     1       3.628   6.785  -9.657  0.00  0.00    -0.118 S 
ATOM     10  C   UNL     1       2.196   8.070  -7.787  0.00  0.00    +0.013 C 
ENDROOT
BRANCH   3  11
ATOM     11  C   UNL     1       2.525   4.337  -7.900  0.00  0.00    +0.383 C 
ATOM     12  OXT UNL     1       2.128   3.334  -8.796  0.00  0.00    -0.244 OA
ATOM     13  O   UNL     1       2.807   4.089  -6.730  0.00  0.00    -0.244 OA
ENDBRANCH   3  11
BRANCH   6  14
ATOM     14  N   UNL     1       3.684   6.047 -12.080  0.00  0.00    -0.195 NA
ATOM     15  C   UNL     1       4.332   5.637 -13.267  0.00  0.00    +0.246 C 
ATOM     16  O   UNL     1       4.284   4.424 -13.635  0.00  0.00    -0.273 OA
BRANCH  15  17
ATOM     17  C   UNL     1       5.594   6.362 -13.619  0.00  0.00    +0.113 C 
BRANCH  17  18
ATOM     18  C   UNL     1       6.438   6.492 -12.390  0.00  0.00    -0.013 A 
ATOM     19  C   UNL     1       7.231   5.467 -11.942  0.00  0.00    -0.004 A 
ATOM     20  C   UNL     1       7.986   5.557 -10.780  0.00  0.00    -0.000 A 
ATOM     21  C   UNL     1       7.961   6.757 -10.081  0.00  0.00    -0.000 A 
ATOM     22  C   UNL     1       7.280   7.819 -10.607  0.00  0.00    -0.000 A 
ATOM     23  C   UNL     1       6.611   7.742 -11.817  0.00  0.00    -0.004 A 
ENDBRANCH  17  18
ENDBRANCH  15  17
ENDBRANCH   6  14
TORSDOF 4
ENDMDL
