MODEL 1
REMARK VINA RESULT:      -5.1      0.000      0.000
REMARK  Name = 
REMARK  0 active torsions:
REMARK  status: ('A' for Active; 'I' for Inactive)
REMARK                            x       y       z     vdW  Elec       q    Type
REMARK                         _______ _______ _______ _____ _____    ______ ____
ROOT
ATOM      1  C   UNL     1       0.331   5.076  -2.185  0.00  0.00    +0.126 C 
ATOM      2  N   UNL     1      -0.728   5.649  -3.009  0.00  0.00    -0.191 N 
ATOM      3  C   UNL     1      -0.584   5.838  -4.422  0.00  0.00    +0.270 C 
ATOM      4  O   UNL     1       0.259   5.308  -5.208  0.00  0.00    -0.271 OA
ATOM      5  C   UNL     1      -1.913   6.397  -4.823  0.00  0.00    +0.206 C 
ATOM      6  C   UNL     1      -1.844   7.919  -4.846  0.00  0.00    +0.053 C 
ATOM      7  C   UNL     1      -2.329   5.901  -6.182  0.00  0.00    +0.053 C 
ATOM      8  O   UNL     1      -2.829   5.976  -3.825  0.00  0.00    -0.433 OA
ATOM      9  C   UNL     1      -2.124   5.500  -2.724  0.00  0.00    +0.411 C 
ATOM     10  O   UNL     1      -2.648   4.887  -1.744  0.00  0.00    -0.226 OA
ENDROOT
TORSDOF 0
ENDMDL
MODEL 2
REMARK VINA RESULT:      -4.8      8.982     10.556
REMARK  Name = 
REMARK  0 active torsions:
REMARK  status: ('A' for Active; 'I' for Inactive)
REMARK                            x       y       z     vdW  Elec       q    Type
REMARK                         _______ _______ _______ _____ _____    ______ ____
ROOT
ATOM      1  C   UNL     1       2.771   6.071 -11.953  0.00  0.00    +0.126 C 
ATOM      2  N   UNL     1       4.215   6.159 -11.765  0.00  0.00    -0.191 N 
ATOM      3  C   UNL     1       4.805   6.480 -10.499  0.00  0.00    +0.270 C 
ATOM      4  O   UNL     1       4.278   6.434  -9.346  0.00  0.00    -0.271 OA
ATOM      5  C   UNL     1       6.273   6.408 -10.786  0.00  0.00    +0.206 C 
ATOM      6  C   UNL     1       6.799   7.797 -11.124  0.00  0.00    +0.053 C 
ATOM      7  C   UNL     1       7.036   5.864  -9.608  0.00  0.00    +0.053 C 
ATOM      8  O   UNL     1       6.407   5.559 -11.915  0.00  0.00    -0.433 OA
ATOM      9  C   UNL     1       5.162   5.382 -12.509  0.00  0.00    +0.411 C 
ATOM     10  O   UNL     1       4.915   4.539 -13.425  0.00  0.00    -0.226 OA
ENDROOT
TORSDOF 0
ENDMDL
MODEL 3
REMARK VINA RESULT:      -4.6      1.449      1.479
REMARK  Name = 
REMARK  0 active torsions:
REMARK  status: ('A' for Active; 'I' for Inactive)
REMARK                            x       y       z     vdW  Elec       q    Type
REMARK                         _______ _______ _______ _____ _____    ______ ____
ROOT
ATOM      1  C   UNL     1       1.883   6.303  -3.523  0.00  0.00    +0.126 C 
ATOM      2  N   UNL     1       0.455   6.346  -3.817  0.00  0.00    -0.191 N 
ATOM      3  C   UNL     1      -0.050   6.577  -5.137  0.00  0.00    +0.270 C 
ATOM      4  O   UNL     1       0.559   6.473  -6.246  0.00  0.00    -0.271 OA
ATOM      5  C   UNL     1      -1.533   6.488  -4.950  0.00  0.00    +0.206 C 
ATOM      6  C   UNL     1      -2.107   7.883  -4.737  0.00  0.00    +0.053 C 
ATOM      7  C   UNL     1      -2.199   5.856  -6.143  0.00  0.00    +0.053 C 
ATOM      8  O   UNL     1      -1.731   5.706  -3.783  0.00  0.00    -0.433 OA
ATOM      9  C   UNL     1      -0.528   5.593  -3.094  0.00  0.00    +0.411 C 
ATOM     10  O   UNL     1      -0.331   4.814  -2.112  0.00  0.00    -0.226 OA
ENDROOT
TORSDOF 0
ENDMDL
MODEL 4
REMARK VINA RESULT:      -4.6      2.105      3.236
REMARK  Name = 
REMARK  0 active torsions:
REMARK  status: ('A' for Active; 'I' for Inactive)
REMARK                            x       y       z     vdW  Elec       q    Type
REMARK                         _______ _______ _______ _____ _____    ______ ____
ROOT
ATOM      1  C   UNL     1       1.205   4.418  -5.772  0.00  0.00    +0.126 C 
ATOM      2  N   UNL     1      -0.086   5.069  -5.577  0.00  0.00    -0.191 N 
ATOM      3  C   UNL     1      -0.352   5.926  -4.460  0.00  0.00    +0.270 C 
ATOM      4  O   UNL     1       0.476   6.493  -3.684  0.00  0.00    -0.271 OA
ATOM      5  C   UNL     1      -1.757   6.379  -4.713  0.00  0.00    +0.206 C 
ATOM      6  C   UNL     1      -2.729   5.481  -3.959  0.00  0.00    +0.053 C 
ATOM      7  C   UNL     1      -1.960   7.805  -4.274  0.00  0.00    +0.053 C 
ATOM      8  O   UNL     1      -1.964   6.242  -6.110  0.00  0.00    -0.433 OA
ATOM      9  C   UNL     1      -0.946   5.466  -6.653  0.00  0.00    +0.411 C 
ATOM     10  O   UNL     1      -0.745   5.309  -7.896  0.00  0.00    -0.226 OA
ENDROOT
TORSDOF 0
ENDMDL
MODEL 5
REMARK VINA RESULT:      -4.5      1.627      2.516
REMARK  Name = 
REMARK  0 active torsions:
REMARK  status: ('A' for Active; 'I' for Inactive)
REMARK                            x       y       z     vdW  Elec       q    Type
REMARK                         _______ _______ _______ _____ _____    ______ ____
ROOT
ATOM      1  C   UNL     1      -2.825   6.978  -2.221  0.00  0.00    +0.126 C 
ATOM      2  N   UNL     1      -1.983   6.425  -3.275  0.00  0.00    -0.191 N 
ATOM      3  C   UNL     1      -1.603   7.182  -4.431  0.00  0.00    +0.270 C 
ATOM      4  O   UNL     1      -1.638   8.439  -4.598  0.00  0.00    -0.271 OA
ATOM      5  C   UNL     1      -0.726   6.230  -5.182  0.00  0.00    +0.206 C 
ATOM      6  C   UNL     1      -1.550   5.487  -6.226  0.00  0.00    +0.053 C 
ATOM      7  C   UNL     1       0.405   6.951  -5.868  0.00  0.00    +0.053 C 
ATOM      8  O   UNL     1      -0.234   5.311  -4.219  0.00  0.00    -0.433 OA
ATOM      9  C   UNL     1      -0.975   5.432  -3.048  0.00  0.00    +0.411 C 
ATOM     10  O   UNL     1      -0.672   4.881  -1.945  0.00  0.00    -0.226 OA
ENDROOT
TORSDOF 0
ENDMDL
MODEL 6
REMARK VINA RESULT:      -4.4      4.362      5.662
REMARK  Name = 
REMARK  0 active torsions:
REMARK  status: ('A' for Active; 'I' for Inactive)
REMARK                            x       y       z     vdW  Elec       q    Type
REMARK                         _______ _______ _______ _____ _____    ______ ____
ROOT
ATOM      1  C   UNL     1       0.324   5.771  -7.613  0.00  0.00    +0.126 C 
ATOM      2  N   UNL     1       1.403   6.248  -6.753  0.00  0.00    -0.191 N 
ATOM      3  C   UNL     1       2.188   5.363  -5.946  0.00  0.00    +0.270 C 
ATOM      4  O   UNL     1       2.316   4.105  -6.047  0.00  0.00    -0.271 OA
ATOM      5  C   UNL     1       3.171   6.286  -5.295  0.00  0.00    +0.206 C 
ATOM      6  C   UNL     1       2.652   6.704  -3.925  0.00  0.00    +0.053 C 
ATOM      7  C   UNL     1       4.516   5.630  -5.135  0.00  0.00    +0.053 C 
ATOM      8  O   UNL     1       3.255   7.422  -6.141  0.00  0.00    -0.433 OA
ATOM      9  C   UNL     1       2.200   7.403  -7.046  0.00  0.00    +0.411 C 
ATOM     10  O   UNL     1       2.094   8.177  -8.045  0.00  0.00    -0.226 OA
ENDROOT
TORSDOF 0
ENDMDL
MODEL 7
REMARK VINA RESULT:      -4.4      5.661      6.992
REMARK  Name = 
REMARK  0 active torsions:
REMARK  status: ('A' for Active; 'I' for Inactive)
REMARK                            x       y       z     vdW  Elec       q    Type
REMARK                         _______ _______ _______ _____ _____    ______ ____
ROOT
ATOM      1  C   UNL     1       1.367   5.556  -6.605  0.00  0.00    +0.126 C 
ATOM      2  N   UNL     1       2.496   5.823  -7.489  0.00  0.00    -0.191 N 
ATOM      3  C   UNL     1       3.032   4.829  -8.370  0.00  0.00    +0.270 C 
ATOM      4  O   UNL     1       2.496   3.747  -8.761  0.00  0.00    -0.271 OA
ATOM      5  C   UNL     1       4.119   5.567  -9.088  0.00  0.00    +0.206 C 
ATOM      6  C   UNL     1       5.450   5.331  -8.385  0.00  0.00    +0.053 C 
ATOM      7  C   UNL     1       4.231   5.122 -10.521  0.00  0.00    +0.053 C 
ATOM      8  O   UNL     1       3.774   6.941  -9.006  0.00  0.00    -0.433 OA
ATOM      9  C   UNL     1       2.774   7.110  -8.054  0.00  0.00    +0.411 C 
ATOM     10  O   UNL     1       2.126   8.186  -7.874  0.00  0.00    -0.226 OA
ENDROOT
TORSDOF 0
ENDMDL
MODEL 8
REMARK VINA RESULT:      -4.3      4.970      6.518
REMARK  Name = 
REMARK  0 active torsions:
REMARK  status: ('A' for Active; 'I' for Inactive)
REMARK                            x       y       z     vdW  Elec       q    Type
REMARK                         _______ _______ _______ _____ _____    ______ ____
ROOT
ATOM      1  C   UNL     1       3.785   6.747  -9.894  0.00  0.00    +0.126 C 
ATOM      2  N   UNL     1       3.510   6.392  -8.506  0.00  0.00    -0.191 N 
ATOM      3  C   UNL     1       2.809   7.268  -7.615  0.00  0.00    +0.270 C 
ATOM      4  O   UNL     1       2.080   8.267  -7.899  0.00  0.00    -0.271 OA
ATOM      5  C   UNL     1       2.732   6.469  -6.351  0.00  0.00    +0.206 C 
ATOM      6  C   UNL     1       3.891   6.843  -5.436  0.00  0.00    +0.053 C 
ATOM      7  C   UNL     1       1.434   6.711  -5.627  0.00  0.00    +0.053 C 
ATOM      8  O   UNL     1       2.851   5.111  -6.742  0.00  0.00    -0.433 OA
ATOM      9  C   UNL     1       3.303   5.048  -8.056  0.00  0.00    +0.411 C 
ATOM     10  O   UNL     1       3.341   3.988  -8.754  0.00  0.00    -0.226 OA
ENDROOT
TORSDOF 0
ENDMDL
MODEL 9
REMARK VINA RESULT:      -4.3      1.771      2.592
REMARK  Name = 
REMARK  0 active torsions:
REMARK  status: ('A' for Active; 'I' for Inactive)
REMARK                            x       y       z     vdW  Elec       q    Type
REMARK                         _______ _______ _______ _____ _____    ______ ____
ROOT
ATOM      1  C   UNL     1       0.557   4.815  -5.994  0.00  0.00    +0.126 C 
ATOM      2  N   UNL     1      -0.152   5.676  -5.053  0.00  0.00    -0.191 N 
ATOM      3  C   UNL     1      -1.560   5.919  -5.148  0.00  0.00    +0.270 C 
ATOM      4  O   UNL     1      -2.436   5.258  -5.786  0.00  0.00    -0.271 OA
ATOM      5  C   UNL     1      -1.828   6.802  -3.969  0.00  0.00    +0.206 C 
ATOM      6  C   UNL     1      -1.781   8.262  -4.400  0.00  0.00    +0.053 C 
ATOM      7  C   UNL     1      -3.173   6.510  -3.359  0.00  0.00    +0.053 C 
ATOM      8  O   UNL     1      -0.783   6.543  -3.044  0.00  0.00    -0.433 OA
ATOM      9  C   UNL     1       0.234   5.841  -3.683  0.00  0.00    +0.411 C 
ATOM     10  O   UNL     1       1.220   5.306  -3.091  0.00  0.00    -0.226 OA
ENDROOT
TORSDOF 0
ENDMDL
