MODEL 1
REMARK VINA RESULT:      -5.8      0.000      0.000
REMARK  Name = 
REMARK  2 active torsions:
REMARK  status: ('A' for Active; 'I' for Inactive)
REMARK    1  A    between atoms: C_2  and  C_4
REMARK    2  A    between atoms: C_8  and  C_9
REMARK                            x       y       z     vdW  Elec       q    Type
REMARK                         _______ _______ _______ _____ _____    ______ ____
ROOT
ATOM      1  C   UNL     1       1.095   6.074  -6.632  0.00  0.00    +0.016 A 
ATOM      2  C   UNL     1       0.443   6.395  -5.450  0.00  0.00    +0.188 A 
ATOM      3  O   UNL     1       1.156   6.930  -4.400  0.00  0.00    -0.287 OA
ATOM      4  C   UNL     1      -0.921   6.206  -5.289  0.00  0.00    +0.016 A 
ATOM      5  C   UNL     1      -1.589   5.700  -6.396  0.00  0.00    -0.001 A 
ATOM      6  C   UNL     1      -0.914   5.245  -7.500  0.00  0.00    -0.000 A 
ATOM      7  C   UNL     1       0.357   5.700  -7.749  0.00  0.00    -0.001 A 
ENDROOT
BRANCH   1   9
ATOM      8  C   UNL     1       2.445   7.578  -8.082  0.00  0.00    +0.005 C 
ATOM      9  C   UNL     1       2.467   6.585  -6.939  0.00  0.00    +0.025 C 
ATOM     10  C   UNL     1       3.423   5.453  -7.266  0.00  0.00    +0.005 C 
ENDBRANCH   1   9
BRANCH   4  11
ATOM     11  C   UNL     1      -1.691   6.679  -4.130  0.00  0.00    +0.025 C 
ATOM     12  C   UNL     1      -2.795   5.766  -3.702  0.00  0.00    +0.005 C 
ATOM     13  C   UNL     1      -2.086   8.122  -4.198  0.00  0.00    +0.005 C 
ENDBRANCH   4  11
TORSDOF 2
ENDMDL
MODEL 2
REMARK VINA RESULT:      -5.8      3.914      7.433
REMARK  Name = 
REMARK  2 active torsions:
REMARK  status: ('A' for Active; 'I' for Inactive)
REMARK    1  A    between atoms: C_2  and  C_4
REMARK    2  A    between atoms: C_8  and  C_9
REMARK                            x       y       z     vdW  Elec       q    Type
REMARK                         _______ _______ _______ _____ _____    ______ ____
ROOT
ATOM      1  C   UNL     1       3.468   5.999  -9.019  0.00  0.00    +0.016 A 
ATOM      2  C   UNL     1       4.210   6.248 -10.164  0.00  0.00    +0.188 A 
ATOM      3  O   UNL     1       3.586   6.740 -11.289  0.00  0.00    -0.287 OA
ATOM      4  C   UNL     1       5.577   6.027 -10.215  0.00  0.00    +0.016 A 
ATOM      5  C   UNL     1       6.152   5.566  -9.038  0.00  0.00    -0.001 A 
ATOM      6  C   UNL     1       5.390   5.181  -7.965  0.00  0.00    -0.000 A 
ATOM      7  C   UNL     1       4.114   5.670  -7.833  0.00  0.00    -0.001 A 
ENDROOT
BRANCH   1   9
ATOM      8  C   UNL     1       2.045   7.588  -7.740  0.00  0.00    +0.005 C 
ATOM      9  C   UNL     1       2.087   6.549  -8.839  0.00  0.00    +0.025 C 
ATOM     10  C   UNL     1       1.085   5.450  -8.541  0.00  0.00    +0.005 C 
ENDBRANCH   1   9
BRANCH   4  11
ATOM     11  C   UNL     1       6.439   6.426 -11.336  0.00  0.00    +0.025 C 
ATOM     12  C   UNL     1       7.600   5.517 -11.583  0.00  0.00    +0.005 C 
ATOM     13  C   UNL     1       6.791   7.882 -11.356  0.00  0.00    +0.005 C 
ENDBRANCH   4  11
TORSDOF 2
ENDMDL
MODEL 3
REMARK VINA RESULT:      -5.8      1.975      4.752
REMARK  Name = 
REMARK  2 active torsions:
REMARK  status: ('A' for Active; 'I' for Inactive)
REMARK    1  A    between atoms: C_2  and  C_4
REMARK    2  A    between atoms: C_8  and  C_9
REMARK                            x       y       z     vdW  Elec       q    Type
REMARK                         _______ _______ _______ _____ _____    ______ ____
ROOT
ATOM      1  C   UNL     1       0.724   6.800  -5.546  0.00  0.00    +0.016 A 
ATOM      2  C   UNL     1       1.768   6.685  -4.639  0.00  0.00    +0.188 A 
ATOM      3  O   UNL     1       1.495   6.447  -3.310  0.00  0.00    -0.287 OA
ATOM      4  C   UNL     1       3.094   6.792  -5.028  0.00  0.00    +0.016 A 
ATOM      5  C   UNL     1       3.303   6.995  -6.386  0.00  0.00    -0.001 A 
ATOM      6  C   UNL     1       2.267   7.258  -7.245  0.00  0.00    -0.000 A 
ATOM      7  C   UNL     1       0.995   6.866  -6.908  0.00  0.00    -0.001 A 
ENDROOT
BRANCH   1   9
ATOM      8  C   UNL     1      -1.300   5.615  -6.372  0.00  0.00    +0.005 C 
ATOM      9  C   UNL     1      -0.663   6.350  -5.212  0.00  0.00    +0.025 C 
ATOM     10  C   UNL     1      -1.543   7.515  -4.801  0.00  0.00    +0.005 C 
ENDBRANCH   1   9
BRANCH   4  11
ATOM     11  C   UNL     1       4.239   6.515  -4.151  0.00  0.00    +0.025 C 
ATOM     12  C   UNL     1       5.314   7.554  -4.183  0.00  0.00    +0.005 C 
ATOM     13  C   UNL     1       4.750   5.108  -4.226  0.00  0.00    +0.005 C 
ENDBRANCH   4  11
TORSDOF 2
ENDMDL
MODEL 4
REMARK VINA RESULT:      -5.7      1.162      4.673
REMARK  Name = 
REMARK  2 active torsions:
REMARK  status: ('A' for Active; 'I' for Inactive)
REMARK    1  A    between atoms: C_2  and  C_4
REMARK    2  A    between atoms: C_8  and  C_9
REMARK                            x       y       z     vdW  Elec       q    Type
REMARK                         _______ _______ _______ _____ _____    ______ ____
ROOT
ATOM      1  C   UNL     1      -1.447   6.114  -4.594  0.00  0.00    +0.016 A 
ATOM      2  C   UNL     1      -0.116   5.993  -4.966  0.00  0.00    +0.188 A 
ATOM      3  O   UNL     1       0.877   6.259  -4.048  0.00  0.00    -0.287 OA
ATOM      4  C   UNL     1       0.257   5.600  -6.241  0.00  0.00    +0.016 A 
ATOM      5  C   UNL     1      -0.788   5.310  -7.107  0.00  0.00    -0.001 A 
ATOM      6  C   UNL     1      -2.093   5.578  -6.778  0.00  0.00    -0.000 A 
ATOM      7  C   UNL     1      -2.448   5.681  -5.456  0.00  0.00    -0.001 A 
ENDROOT
BRANCH   1   9
ATOM      8  C   UNL     1      -3.083   5.346  -2.885  0.00  0.00    +0.005 C 
ATOM      9  C   UNL     1      -1.860   6.195  -3.158  0.00  0.00    +0.025 C 
ATOM     10  C   UNL     1      -2.129   7.628  -2.736  0.00  0.00    +0.005 C 
ENDBRANCH   1   9
BRANCH   4  11
ATOM     11  C   UNL     1       1.638   5.294  -6.642  0.00  0.00    +0.025 C 
ATOM     12  C   UNL     1       2.038   5.854  -7.970  0.00  0.00    +0.005 C 
ATOM     13  C   UNL     1       2.039   3.866  -6.438  0.00  0.00    +0.005 C 
ENDBRANCH   4  11
TORSDOF 2
ENDMDL
MODEL 5
REMARK VINA RESULT:      -5.6      4.453      5.818
REMARK  Name = 
REMARK  2 active torsions:
REMARK  status: ('A' for Active; 'I' for Inactive)
REMARK    1  A    between atoms: C_2  and  C_4
REMARK    2  A    between atoms: C_8  and  C_9
REMARK                            x       y       z     vdW  Elec       q    Type
REMARK                         _______ _______ _______ _____ _____    ______ ____
ROOT
ATOM      1  C   UNL     1       3.886   6.414  -9.869  0.00  0.00    +0.016 A 
ATOM      2  C   UNL     1       2.875   6.246 -10.804  0.00  0.00    +0.188 A 
ATOM      3  O   UNL     1       3.189   5.846 -12.085  0.00  0.00    -0.287 OA
ATOM      4  C   UNL     1       1.542   6.460 -10.491  0.00  0.00    +0.016 A 
ATOM      5  C   UNL     1       1.289   6.825  -9.176  0.00  0.00    -0.001 A 
ATOM      6  C   UNL     1       2.302   7.134  -8.305  0.00  0.00    -0.000 A 
ATOM      7  C   UNL     1       3.564   6.646  -8.537  0.00  0.00    -0.001 A 
ENDROOT
BRANCH   1   9
ATOM      8  C   UNL     1       5.859   5.346  -8.796  0.00  0.00    +0.005 C 
ATOM      9  C   UNL     1       5.260   5.862 -10.086  0.00  0.00    +0.025 C 
ATOM     10  C   UNL     1       6.184   6.897 -10.700  0.00  0.00    +0.005 C 
ENDBRANCH   1   9
BRANCH   4  11
ATOM     11  C   UNL     1       0.420   6.140 -11.385  0.00  0.00    +0.025 C 
ATOM     12  C   UNL     1      -0.650   7.184 -11.438  0.00  0.00    +0.005 C 
ATOM     13  C   UNL     1      -0.099   4.742 -11.248  0.00  0.00    +0.005 C 
ENDBRANCH   4  11
TORSDOF 2
ENDMDL
MODEL 6
REMARK VINA RESULT:      -5.6      3.867      4.960
REMARK  Name = 
REMARK  2 active torsions:
REMARK  status: ('A' for Active; 'I' for Inactive)
REMARK    1  A    between atoms: C_2  and  C_4
REMARK    2  A    between atoms: C_8  and  C_9
REMARK                            x       y       z     vdW  Elec       q    Type
REMARK                         _______ _______ _______ _____ _____    ______ ____
ROOT
ATOM      1  C   UNL     1       3.523   6.279  -8.918  0.00  0.00    +0.016 A 
ATOM      2  C   UNL     1       4.204   5.832  -7.795  0.00  0.00    +0.188 A 
ATOM      3  O   UNL     1       5.262   4.962  -7.939  0.00  0.00    -0.287 OA
ATOM      4  C   UNL     1       3.860   6.241  -6.517  0.00  0.00    +0.016 A 
ATOM      5  C   UNL     1       2.809   7.146  -6.441  0.00  0.00    -0.001 A 
ATOM      6  C   UNL     1       2.050   7.462  -7.538  0.00  0.00    -0.000 A 
ATOM      7  C   UNL     1       2.573   7.286  -8.795  0.00  0.00    -0.001 A 
ENDROOT
BRANCH   1   9
ATOM      8  C   UNL     1       5.006   7.279 -10.647  0.00  0.00    +0.005 C 
ATOM      9  C   UNL     1       4.089   6.127 -10.295  0.00  0.00    +0.025 C 
ATOM     10  C   UNL     1       2.993   6.011 -11.338  0.00  0.00    +0.005 C 
ENDBRANCH   1   9
BRANCH   4  11
ATOM     11  C   UNL     1       4.642   5.935  -5.311  0.00  0.00    +0.025 C 
ATOM     12  C   UNL     1       4.107   4.804  -4.492  0.00  0.00    +0.005 C 
ATOM     13  C   UNL     1       5.033   7.137  -4.506  0.00  0.00    +0.005 C 
ENDBRANCH   4  11
TORSDOF 2
ENDMDL
MODEL 7
REMARK VINA RESULT:      -5.5      1.969      4.870
REMARK  Name = 
REMARK  2 active torsions:
REMARK  status: ('A' for Active; 'I' for Inactive)
REMARK    1  A    between atoms: C_2  and  C_4
REMARK    2  A    between atoms: C_8  and  C_9
REMARK                            x       y       z     vdW  Elec       q    Type
REMARK                         _______ _______ _______ _____ _____    ______ ____
ROOT
ATOM      1  C   UNL     1       0.049   6.475  -4.885  0.00  0.00    +0.016 A 
ATOM      2  C   UNL     1       1.270   6.730  -5.492  0.00  0.00    +0.188 A 
ATOM      3  O   UNL     1       1.303   7.241  -6.771  0.00  0.00    -0.287 OA
ATOM      4  C   UNL     1       2.474   6.496  -4.847  0.00  0.00    +0.016 A 
ATOM      5  C   UNL     1       2.373   6.017  -3.548  0.00  0.00    -0.001 A 
ATOM      6  C   UNL     1       1.171   5.626  -3.015  0.00  0.00    -0.000 A 
ATOM      7  C   UNL     1       0.005   6.126  -3.540  0.00  0.00    -0.001 A 
ENDROOT
BRANCH   1   9
ATOM      8  C   UNL     1      -1.872   7.989  -4.435  0.00  0.00    +0.005 C 
ATOM      9  C   UNL     1      -1.231   7.036  -5.421  0.00  0.00    +0.025 C 
ATOM     10  C   UNL     1      -2.213   5.937  -5.781  0.00  0.00    +0.005 C 
ENDBRANCH   1   9
BRANCH   4  11
ATOM     11  C   UNL     1       3.786   6.900  -5.372  0.00  0.00    +0.025 C 
ATOM     12  C   UNL     1       4.484   5.851  -6.177  0.00  0.00    +0.005 C 
ATOM     13  C   UNL     1       4.666   7.587  -4.373  0.00  0.00    +0.005 C 
ENDBRANCH   4  11
TORSDOF 2
ENDMDL
MODEL 8
REMARK VINA RESULT:      -5.5      4.902      7.400
REMARK  Name = 
REMARK  2 active torsions:
REMARK  status: ('A' for Active; 'I' for Inactive)
REMARK    1  A    between atoms: C_2  and  C_4
REMARK    2  A    between atoms: C_8  and  C_9
REMARK                            x       y       z     vdW  Elec       q    Type
REMARK                         _______ _______ _______ _____ _____    ______ ____
ROOT
ATOM      1  C   UNL     1       6.163   5.844 -11.332  0.00  0.00    +0.016 A 
ATOM      2  C   UNL     1       4.814   5.625 -11.098  0.00  0.00    +0.188 A 
ATOM      3  O   UNL     1       3.928   5.626 -12.153  0.00  0.00    -0.287 OA
ATOM      4  C   UNL     1       4.318   5.391  -9.825  0.00  0.00    +0.016 A 
ATOM      5  C   UNL     1       5.266   5.365  -8.810  0.00  0.00    -0.001 A 
ATOM      6  C   UNL     1       6.569   5.732  -9.031  0.00  0.00    -0.000 A 
ATOM      7  C   UNL     1       7.081   5.671 -10.303  0.00  0.00    -0.001 A 
ENDROOT
BRANCH   1   9
ATOM      8  C   UNL     1       8.232   5.448 -12.656  0.00  0.00    +0.005 C 
ATOM      9  C   UNL     1       6.749   5.751 -12.706  0.00  0.00    +0.025 C 
ATOM     10  C   UNL     1       6.516   7.024 -13.498  0.00  0.00    +0.005 C 
ENDBRANCH   1   9
BRANCH   4  11
ATOM     11  C   UNL     1       2.934   4.990  -9.536  0.00  0.00    +0.025 C 
ATOM     12  C   UNL     1       2.014   6.122  -9.205  0.00  0.00    +0.005 C 
ATOM     13  C   UNL     1       2.811   3.816  -8.613  0.00  0.00    +0.005 C 
ENDBRANCH   4  11
TORSDOF 2
ENDMDL
MODEL 9
REMARK VINA RESULT:      -5.4      4.642      6.241
REMARK  Name = 
REMARK  2 active torsions:
REMARK  status: ('A' for Active; 'I' for Inactive)
REMARK    1  A    between atoms: C_2  and  C_4
REMARK    2  A    between atoms: C_8  and  C_9
REMARK                            x       y       z     vdW  Elec       q    Type
REMARK                         _______ _______ _______ _____ _____    ______ ____
ROOT
ATOM      1  C   UNL     1       4.634   6.395 -11.067  0.00  0.00    +0.016 A 
ATOM      2  C   UNL     1       3.399   6.479 -10.441  0.00  0.00    +0.188 A 
ATOM      3  O   UNL     1       3.323   6.909  -9.134  0.00  0.00    -0.287 OA
ATOM      4  C   UNL     1       2.221   6.153 -11.095  0.00  0.00    +0.016 A 
ATOM      5  C   UNL     1       2.361   5.763 -12.420  0.00  0.00    -0.001 A 
ATOM      6  C   UNL     1       3.593   5.538 -12.979  0.00  0.00    -0.000 A 
ATOM      7  C   UNL     1       4.702   6.131 -12.430  0.00  0.00    -0.001 A 
ENDROOT
BRANCH   1   9
ATOM      8  C   UNL     1       6.458   8.031 -11.494  0.00  0.00    +0.005 C 
ATOM      9  C   UNL     1       5.850   7.061 -10.504  0.00  0.00    +0.025 C 
ATOM     10  C   UNL     1       6.894   6.046 -10.077  0.00  0.00    +0.005 C 
ENDBRANCH   1   9
BRANCH   4  11
ATOM     11  C   UNL     1       0.878   6.380 -10.543  0.00  0.00    +0.025 C 
ATOM     12  C   UNL     1       0.247   5.173  -9.924  0.00  0.00    +0.005 C 
ATOM     13  C   UNL     1      -0.038   7.151 -11.443  0.00  0.00    +0.005 C 
ENDBRANCH   4  11
TORSDOF 2
ENDMDL
