MODEL 1
REMARK VINA RESULT:      -6.3      0.000      0.000
REMARK  Name = 
REMARK  2 active torsions:
REMARK  status: ('A' for Active; 'I' for Inactive)
REMARK    1  A    between atoms: S_2  and  C_5
REMARK    2  A    between atoms: C_5  and  C_6
REMARK                            x       y       z     vdW  Elec       q    Type
REMARK                         _______ _______ _______ _____ _____    ______ ____
ROOT
ATOM      1  C   UNL     1       6.723   6.231 -14.161  0.00  0.00    +0.126 A 
ATOM      2  C   UNL     1       6.903   6.604 -12.832  0.00  0.00    +0.056 A 
ATOM      3  C   UNL     1       7.856   5.739 -12.307  0.00  0.00    +0.177 A 
ATOM      4  C   UNL     1       8.385   6.059 -11.079  0.00  0.00    +0.040 A 
ATOM      5  C   UNL     1       7.638   6.874 -10.237  0.00  0.00    +0.003 A 
ATOM      6  C   UNL     1       6.819   7.845 -10.779  0.00  0.00    +0.000 A 
ATOM      7  O   UNL     1       7.812   4.682 -13.083  0.00  0.00    -0.354 OA
ATOM      8  C   UNL     1       6.555   7.729 -12.136  0.00  0.00    +0.004 A 
ATOM      9  N   UNL     1       7.133   4.939 -14.171  0.00  0.00    -0.080 NA
ENDROOT
BRANCH   1  10
ATOM     10  C   UNL     1       5.496   6.675 -14.893  0.00  0.00    +0.221 C 
BRANCH  10  12
ATOM     11  N   UNL     1       5.125   6.829 -17.768  0.00  0.00    +0.035 NA
ATOM     12  S   UNL     1       5.860   7.550 -16.372  0.00  0.00    +0.080 S 
ATOM     13  O   UNL     1       5.532   9.000 -16.314  0.00  0.00    -0.154 OA
ATOM     14  O   UNL     1       7.352   7.452 -16.591  0.00  0.00    -0.154 OA
ENDBRANCH  10  12
ENDBRANCH   1  10
TORSDOF 2
ENDMDL
MODEL 2
REMARK VINA RESULT:      -6.2     13.512     14.782
REMARK  Name = 
REMARK  2 active torsions:
REMARK  status: ('A' for Active; 'I' for Inactive)
REMARK    1  A    between atoms: S_2  and  C_5
REMARK    2  A    between atoms: C_5  and  C_6
REMARK                            x       y       z     vdW  Elec       q    Type
REMARK                         _______ _______ _______ _____ _____    ______ ____
ROOT
ATOM      1  C   UNL     1      -1.648   5.863  -2.178  0.00  0.00    +0.126 A 
ATOM      2  C   UNL     1      -1.340   5.890  -3.535  0.00  0.00    +0.056 A 
ATOM      3  C   UNL     1      -2.493   5.505  -4.208  0.00  0.00    +0.177 A 
ATOM      4  C   UNL     1      -2.516   5.690  -5.571  0.00  0.00    +0.040 A 
ATOM      5  C   UNL     1      -1.301   5.757  -6.242  0.00  0.00    +0.003 A 
ATOM      6  C   UNL     1      -0.202   6.301  -5.608  0.00  0.00    +0.000 A 
ATOM      7  O   UNL     1      -3.187   4.828  -3.323  0.00  0.00    -0.354 OA
ATOM      8  C   UNL     1      -0.305   6.451  -4.233  0.00  0.00    +0.004 A 
ATOM      9  N   UNL     1      -2.696   5.005  -2.124  0.00  0.00    -0.080 NA
ENDROOT
BRANCH   1  10
ATOM     10  C   UNL     1      -0.544   5.823  -1.170  0.00  0.00    +0.221 C 
BRANCH  10  12
ATOM     11  N   UNL     1       0.597   7.060   1.196  0.00  0.00    +0.035 NA
ATOM     12  S   UNL     1      -0.789   6.946   0.158  0.00  0.00    +0.080 S 
ATOM     13  O   UNL     1      -1.218   8.305  -0.268  0.00  0.00    -0.154 OA
ATOM     14  O   UNL     1      -1.902   6.388   1.014  0.00  0.00    -0.154 OA
ENDBRANCH  10  12
ENDBRANCH   1  10
TORSDOF 2
ENDMDL
MODEL 3
REMARK VINA RESULT:      -6.2      5.535      6.841
REMARK  Name = 
REMARK  2 active torsions:
REMARK  status: ('A' for Active; 'I' for Inactive)
REMARK    1  A    between atoms: S_2  and  C_5
REMARK    2  A    between atoms: C_5  and  C_6
REMARK                            x       y       z     vdW  Elec       q    Type
REMARK                         _______ _______ _______ _____ _____    ______ ____
ROOT
ATOM      1  C   UNL     1       3.740   5.539  -9.616  0.00  0.00    +0.126 A 
ATOM      2  C   UNL     1       5.082   5.844  -9.827  0.00  0.00    +0.056 A 
ATOM      3  C   UNL     1       5.116   6.776 -10.857  0.00  0.00    +0.177 A 
ATOM      4  C   UNL     1       6.311   7.418 -11.084  0.00  0.00    +0.040 A 
ATOM      5  C   UNL     1       7.479   6.791 -10.667  0.00  0.00    +0.003 A 
ATOM      6  C   UNL     1       7.459   5.998  -9.536  0.00  0.00    +0.000 A 
ATOM      7  O   UNL     1       3.985   6.604 -11.501  0.00  0.00    -0.354 OA
ATOM      8  C   UNL     1       6.206   5.624  -9.077  0.00  0.00    +0.004 A 
ATOM      9  N   UNL     1       3.167   5.862 -10.801  0.00  0.00    -0.080 NA
ENDROOT
BRANCH   1  10
ATOM     10  C   UNL     1       3.374   4.291  -8.877  0.00  0.00    +0.221 C 
BRANCH  10  12
ATOM     11  N   UNL     1       1.204   5.669  -7.529  0.00  0.00    +0.035 NA
ATOM     12  S   UNL     1       2.568   4.612  -7.349  0.00  0.00    +0.080 S 
ATOM     13  O   UNL     1       2.168   3.387  -6.606  0.00  0.00    -0.154 OA
ATOM     14  O   UNL     1       3.552   5.350  -6.472  0.00  0.00    -0.154 OA
ENDBRANCH  10  12
ENDBRANCH   1  10
TORSDOF 2
ENDMDL
MODEL 4
REMARK VINA RESULT:      -6.0      4.866      5.481
REMARK  Name = 
REMARK  2 active torsions:
REMARK  status: ('A' for Active; 'I' for Inactive)
REMARK    1  A    between atoms: S_2  and  C_5
REMARK    2  A    between atoms: C_5  and  C_6
REMARK                            x       y       z     vdW  Elec       q    Type
REMARK                         _______ _______ _______ _____ _____    ______ ____
ROOT
ATOM      1  C   UNL     1       3.857   5.777  -9.460  0.00  0.00    +0.126 A 
ATOM      2  C   UNL     1       5.030   6.374  -9.915  0.00  0.00    +0.056 A 
ATOM      3  C   UNL     1       6.078   5.613  -9.412  0.00  0.00    +0.177 A 
ATOM      4  C   UNL     1       7.331   5.856  -9.924  0.00  0.00    +0.040 A 
ATOM      5  C   UNL     1       7.576   7.102 -10.489  0.00  0.00    +0.003 A 
ATOM      6  C   UNL     1       6.554   7.769 -11.135  0.00  0.00    +0.000 A 
ATOM      7  O   UNL     1       5.574   4.997  -8.369  0.00  0.00    -0.354 OA
ATOM      8  C   UNL     1       5.273   7.296 -10.897  0.00  0.00    +0.004 A 
ATOM      9  N   UNL     1       4.270   5.097  -8.363  0.00  0.00    -0.080 NA
ENDROOT
BRANCH   1  10
ATOM     10  C   UNL     1       2.579   6.556  -9.471  0.00  0.00    +0.221 C 
BRANCH  10  12
ATOM     11  N   UNL     1       2.128   6.084 -12.300  0.00  0.00    +0.035 NA
ATOM     12  S   UNL     1       1.454   6.007 -10.703  0.00  0.00    +0.080 S 
ATOM     13  O   UNL     1       0.894   4.651 -10.451  0.00  0.00    -0.154 OA
ATOM     14  O   UNL     1       0.287   6.966 -10.699  0.00  0.00    -0.154 OA
ENDBRANCH  10  12
ENDBRANCH   1  10
TORSDOF 2
ENDMDL
MODEL 5
REMARK VINA RESULT:      -6.0      2.904      3.099
REMARK  Name = 
REMARK  2 active torsions:
REMARK  status: ('A' for Active; 'I' for Inactive)
REMARK    1  A    between atoms: S_2  and  C_5
REMARK    2  A    between atoms: C_5  and  C_6
REMARK                            x       y       z     vdW  Elec       q    Type
REMARK                         _______ _______ _______ _____ _____    ______ ____
ROOT
ATOM      1  C   UNL     1       5.069   5.713 -12.666  0.00  0.00    +0.126 A 
ATOM      2  C   UNL     1       5.941   5.664 -11.581  0.00  0.00    +0.056 A 
ATOM      3  C   UNL     1       7.185   5.317 -12.093  0.00  0.00    +0.177 A 
ATOM      4  C   UNL     1       8.267   5.445 -11.253  0.00  0.00    +0.040 A 
ATOM      5  C   UNL     1       8.037   5.413  -9.882  0.00  0.00    +0.003 A 
ATOM      6  C   UNL     1       6.856   5.920  -9.378  0.00  0.00    +0.000 A 
ATOM      7  O   UNL     1       6.924   4.720 -13.232  0.00  0.00    -0.354 OA
ATOM      8  C   UNL     1       5.843   6.135 -10.300  0.00  0.00    +0.004 A 
ATOM      9  N   UNL     1       5.679   4.920 -13.580  0.00  0.00    -0.080 NA
ENDROOT
BRANCH   1  10
ATOM     10  C   UNL     1       3.593   5.653 -12.430  0.00  0.00    +0.221 C 
BRANCH  10  12
ATOM     11  N   UNL     1       2.477   3.964 -14.511  0.00  0.00    +0.035 NA
ATOM     12  S   UNL     1       2.664   5.585 -13.920  0.00  0.00    +0.080 S 
ATOM     13  O   UNL     1       1.337   6.253 -13.838  0.00  0.00    -0.154 OA
ATOM     14  O   UNL     1       3.458   6.321 -14.973  0.00  0.00    -0.154 OA
ENDBRANCH  10  12
ENDBRANCH   1  10
TORSDOF 2
ENDMDL
MODEL 6
REMARK VINA RESULT:      -5.9      8.919     10.048
REMARK  Name = 
REMARK  2 active torsions:
REMARK  status: ('A' for Active; 'I' for Inactive)
REMARK    1  A    between atoms: S_2  and  C_5
REMARK    2  A    between atoms: C_5  and  C_6
REMARK                            x       y       z     vdW  Elec       q    Type
REMARK                         _______ _______ _______ _____ _____    ______ ____
ROOT
ATOM      1  C   UNL     1       1.414   5.724  -6.302  0.00  0.00    +0.126 A 
ATOM      2  C   UNL     1       0.049   5.894  -6.085  0.00  0.00    +0.056 A 
ATOM      3  C   UNL     1      -0.075   6.874  -5.107  0.00  0.00    +0.177 A 
ATOM      4  C   UNL     1      -1.330   7.394  -4.895  0.00  0.00    +0.040 A 
ATOM      5  C   UNL     1      -2.428   6.622  -5.257  0.00  0.00    +0.003 A 
ATOM      6  C   UNL     1      -2.334   5.774  -6.343  0.00  0.00    +0.000 A 
ATOM      7  O   UNL     1       1.075   6.862  -4.474  0.00  0.00    -0.354 OA
ATOM      8  C   UNL     1      -1.052   5.512  -6.802  0.00  0.00    +0.004 A 
ATOM      9  N   UNL     1       1.961   6.174  -5.146  0.00  0.00    -0.080 NA
ENDROOT
BRANCH   1  10
ATOM     10  C   UNL     1       1.905   4.484  -6.977  0.00  0.00    +0.221 C 
BRANCH  10  12
ATOM     11  N   UNL     1       2.972   6.458  -8.819  0.00  0.00    +0.035 NA
ATOM     12  S   UNL     1       2.559   4.790  -8.579  0.00  0.00    +0.080 S 
ATOM     13  O   UNL     1       3.712   3.922  -8.939  0.00  0.00    -0.154 OA
ATOM     14  O   UNL     1       1.462   4.488  -9.573  0.00  0.00    -0.154 OA
ENDBRANCH  10  12
ENDBRANCH   1  10
TORSDOF 2
ENDMDL
MODEL 7
REMARK VINA RESULT:      -5.9     12.543     13.910
REMARK  Name = 
REMARK  2 active torsions:
REMARK  status: ('A' for Active; 'I' for Inactive)
REMARK    1  A    between atoms: S_2  and  C_5
REMARK    2  A    between atoms: C_5  and  C_6
REMARK                            x       y       z     vdW  Elec       q    Type
REMARK                         _______ _______ _______ _____ _____    ______ ____
ROOT
ATOM      1  C   UNL     1      -0.859   5.388  -2.400  0.00  0.00    +0.126 A 
ATOM      2  C   UNL     1      -0.995   5.435  -3.785  0.00  0.00    +0.056 A 
ATOM      3  C   UNL     1      -2.350   5.601  -4.041  0.00  0.00    +0.177 A 
ATOM      4  C   UNL     1      -2.711   5.921  -5.329  0.00  0.00    +0.040 A 
ATOM      5  C   UNL     1      -1.839   5.580  -6.356  0.00  0.00    +0.003 A 
ATOM      6  C   UNL     1      -0.478   5.585  -6.123  0.00  0.00    +0.000 A 
ATOM      7  O   UNL     1      -2.951   5.157  -2.962  0.00  0.00    -0.354 OA
ATOM      8  C   UNL     1      -0.088   5.619  -4.793  0.00  0.00    +0.004 A 
ATOM      9  N   UNL     1      -2.092   5.004  -1.988  0.00  0.00    -0.080 NA
ENDROOT
BRANCH   1  10
ATOM     10  C   UNL     1       0.387   4.817  -1.799  0.00  0.00    +0.221 C 
BRANCH  10  12
ATOM     11  N   UNL     1       0.588   7.167  -0.106  0.00  0.00    +0.035 NA
ATOM     12  S   UNL     1       1.442   6.045  -1.117  0.00  0.00    +0.080 S 
ATOM     13  O   UNL     1       2.618   5.497  -0.389  0.00  0.00    -0.154 OA
ATOM     14  O   UNL     1       1.985   6.856  -2.271  0.00  0.00    -0.154 OA
ENDBRANCH  10  12
ENDBRANCH   1  10
TORSDOF 2
ENDMDL
MODEL 8
REMARK VINA RESULT:      -5.8      9.763     11.005
REMARK  Name = 
REMARK  2 active torsions:
REMARK  status: ('A' for Active; 'I' for Inactive)
REMARK    1  A    between atoms: S_2  and  C_5
REMARK    2  A    between atoms: C_5  and  C_6
REMARK                            x       y       z     vdW  Elec       q    Type
REMARK                         _______ _______ _______ _____ _____    ______ ____
ROOT
ATOM      1  C   UNL     1       1.403   5.565  -4.650  0.00  0.00    +0.126 A 
ATOM      2  C   UNL     1       0.212   5.488  -5.368  0.00  0.00    +0.056 A 
ATOM      3  C   UNL     1      -0.808   5.761  -4.466  0.00  0.00    +0.177 A 
ATOM      4  C   UNL     1      -2.061   5.987  -4.985  0.00  0.00    +0.040 A 
ATOM      5  C   UNL     1      -2.354   5.461  -6.238  0.00  0.00    +0.003 A 
ATOM      6  C   UNL     1      -1.352   5.354  -7.182  0.00  0.00    +0.000 A 
ATOM      7  O   UNL     1      -0.296   5.489  -3.288  0.00  0.00    -0.354 OA
ATOM      8  C   UNL     1      -0.055   5.481  -6.710  0.00  0.00    +0.004 A 
ATOM      9  N   UNL     1       1.001   5.348  -3.374  0.00  0.00    -0.080 NA
ENDROOT
BRANCH   1  10
ATOM     10  C   UNL     1       2.642   4.935  -5.205  0.00  0.00    +0.221 C 
BRANCH  10  12
ATOM     11  N   UNL     1       4.678   5.488  -7.199  0.00  0.00    +0.035 NA
ATOM     12  S   UNL     1       3.774   6.110  -5.855  0.00  0.00    +0.080 S 
ATOM     13  O   UNL     1       3.154   7.413  -6.217  0.00  0.00    -0.154 OA
ATOM     14  O   UNL     1       4.788   6.398  -4.772  0.00  0.00    -0.154 OA
ENDBRANCH  10  12
ENDBRANCH   1  10
TORSDOF 2
ENDMDL
MODEL 9
REMARK VINA RESULT:      -5.8      9.427     10.714
REMARK  Name = 
REMARK  2 active torsions:
REMARK  status: ('A' for Active; 'I' for Inactive)
REMARK    1  A    between atoms: S_2  and  C_5
REMARK    2  A    between atoms: C_5  and  C_6
REMARK                            x       y       z     vdW  Elec       q    Type
REMARK                         _______ _______ _______ _____ _____    ______ ____
ROOT
ATOM      1  C   UNL     1       1.048   6.100  -6.682  0.00  0.00    +0.126 A 
ATOM      2  C   UNL     1      -0.120   6.540  -6.066  0.00  0.00    +0.056 A 
ATOM      3  C   UNL     1      -1.145   5.733  -6.545  0.00  0.00    +0.177 A 
ATOM      4  C   UNL     1      -2.357   5.810  -5.901  0.00  0.00    +0.040 A 
ATOM      5  C   UNL     1      -2.650   6.971  -5.194  0.00  0.00    +0.003 A 
ATOM      6  C   UNL     1      -1.629   7.669  -4.580  0.00  0.00    +0.000 A 
ATOM      7  O   UNL     1      -0.696   5.265  -7.686  0.00  0.00    -0.354 OA
ATOM      8  C   UNL     1      -0.342   7.341  -4.979  0.00  0.00    +0.004 A 
ATOM      9  N   UNL     1       0.588   5.487  -7.800  0.00  0.00    -0.080 NA
ENDROOT
BRANCH   1  10
ATOM     10  C   UNL     1       2.250   6.990  -6.709  0.00  0.00    +0.221 C 
BRANCH  10  12
ATOM     11  N   UNL     1       2.939   5.475  -4.331  0.00  0.00    +0.035 NA
ATOM     12  S   UNL     1       3.534   6.439  -5.645  0.00  0.00    +0.080 S 
ATOM     13  O   UNL     1       4.636   5.724  -6.344  0.00  0.00    -0.154 OA
ATOM     14  O   UNL     1       4.146   7.667  -5.013  0.00  0.00    -0.154 OA
ENDBRANCH  10  12
ENDBRANCH   1  10
TORSDOF 2
ENDMDL
