MODEL 1
REMARK VINA RESULT:      -8.5      0.000      0.000
REMARK  Name = 
REMARK  6 active torsions:
REMARK  status: ('A' for Active; 'I' for Inactive)
REMARK    1  A    between atoms: C_5  and  C_6
REMARK    2  A    between atoms: C_6  and  C_7
REMARK    3  A    between atoms: C_6  and  O_13
REMARK    4  A    between atoms: C_7  and  N_8
REMARK    5  A    between atoms: O_13  and  C_14
REMARK    6  A    between atoms: C_14  and  C_15
REMARK                            x       y       z     vdW  Elec       q    Type
REMARK                         _______ _______ _______ _____ _____    ______ ____
ROOT
ATOM      1  C   UNL     1       2.970   5.025  -9.467  0.00  0.00    +0.161 C 
ENDROOT
BRANCH   1   7
ATOM      2 CL   UNL     1       8.580   5.743 -11.246  0.00  0.00    -0.082 Cl
ATOM      3  C   UNL     1       7.005   5.547 -10.675  0.00  0.00    +0.058 A 
ATOM      4  C   UNL     1       5.984   5.481 -11.603  0.00  0.00    +0.023 A 
ATOM      5  C   UNL     1       4.689   5.654 -11.195  0.00  0.00    +0.057 A 
ATOM      6 CL   UNL     1       3.408   6.084 -12.330  0.00  0.00    -0.082 Cl
ATOM      7  C   UNL     1       4.335   5.871  -9.880  0.00  0.00    +0.017 A 
ATOM      8  C   UNL     1       5.324   5.595  -8.938  0.00  0.00    -0.000 A 
ATOM      9  C   UNL     1       6.646   5.728  -9.346  0.00  0.00    +0.011 A 
ENDBRANCH   1   7
BRANCH   1  10
ATOM     10  O   UNL     1       3.349   5.085  -7.965  0.00  0.00    -0.345 OA
BRANCH  10  11
ATOM     11  C   UNL     1       2.471   4.186  -7.399  0.00  0.00    +0.170 C 
BRANCH  11  12
ATOM     12  C   UNL     1       1.892   4.792  -6.155  0.00  0.00    +0.014 A 
ATOM     13  C   UNL     1       0.592   5.143  -5.999  0.00  0.00    +0.006 A 
ATOM     14  C   UNL     1      -0.416   5.146  -6.964  0.00  0.00    +0.000 A 
ATOM     15  C   UNL     1      -1.714   5.338  -6.591  0.00  0.00    +0.001 A 
ATOM     16  C   UNL     1      -2.021   6.091  -5.474  0.00  0.00    +0.012 A 
ATOM     17  C   UNL     1      -0.968   6.336  -4.599  0.00  0.00    +0.064 A 
ATOM     18 CL   UNL     1      -1.370   6.813  -2.952  0.00  0.00    -0.082 Cl
ATOM     19  C   UNL     1       0.329   5.968  -4.946  0.00  0.00    +0.040 A 
ATOM     20  S   UNL     1       1.720   5.844  -3.954  0.00  0.00    -0.086 S 
ATOM     21  C   UNL     1       2.656   4.881  -5.017  0.00  0.00    +0.034 A 
ENDBRANCH  11  12
ENDBRANCH  10  11
ENDBRANCH   1  10
BRANCH   1  22
ATOM     22  C   UNL     1       2.052   6.431  -9.316  0.00  0.00    +0.142 C 
BRANCH  22  23
ATOM     23  N   UNL     1       0.832   6.056 -10.031  0.00  0.00    -0.305 N 
ATOM     24  C   UNL     1       0.252   6.905 -10.911  0.00  0.00    +0.179 A 
ATOM     25  N   UNL     1      -0.179   6.260 -11.995  0.00  0.00    -0.222 NA
ATOM     26  C   UNL     1      -0.018   4.941 -11.784  0.00  0.00    +0.119 A 
ATOM     27  C   UNL     1       0.529   4.824 -10.510  0.00  0.00    +0.098 A 
ENDBRANCH  22  23
ENDBRANCH   1  22
TORSDOF 6
ENDMDL
MODEL 2
REMARK VINA RESULT:      -8.2      2.851      7.992
REMARK  Name = 
REMARK  6 active torsions:
REMARK  status: ('A' for Active; 'I' for Inactive)
REMARK    1  A    between atoms: C_5  and  C_6
REMARK    2  A    between atoms: C_6  and  C_7
REMARK    3  A    between atoms: C_6  and  O_13
REMARK    4  A    between atoms: C_7  and  N_8
REMARK    5  A    between atoms: O_13  and  C_14
REMARK    6  A    between atoms: C_14  and  C_15
REMARK                            x       y       z     vdW  Elec       q    Type
REMARK                         _______ _______ _______ _____ _____    ______ ____
ROOT
ATOM      1  C   UNL     1       1.993   5.397  -5.705  0.00  0.00    +0.161 C 
ENDROOT
BRANCH   1   7
ATOM      2 CL   UNL     1      -3.504   5.639  -3.494  0.00  0.00    -0.082 Cl
ATOM      3  C   UNL     1      -1.966   5.582  -4.185  0.00  0.00    +0.058 A 
ATOM      4  C   UNL     1      -0.878   5.508  -3.338  0.00  0.00    +0.023 A 
ATOM      5  C   UNL     1       0.373   5.789  -3.819  0.00  0.00    +0.057 A 
ATOM      6 CL   UNL     1       1.707   6.210  -2.744  0.00  0.00    -0.082 Cl
ATOM      7  C   UNL     1       0.617   6.125  -5.133  0.00  0.00    +0.017 A 
ATOM      8  C   UNL     1      -0.421   5.862  -6.024  0.00  0.00    -0.000 A 
ATOM      9  C   UNL     1      -1.715   5.883  -5.518  0.00  0.00    +0.011 A 
ENDBRANCH   1   7
BRANCH   1  10
ATOM     10  O   UNL     1       1.422   5.379  -7.146  0.00  0.00    -0.345 OA
BRANCH  10  11
ATOM     11  C   UNL     1       2.214   4.437  -7.768  0.00  0.00    +0.170 C 
BRANCH  11  12
ATOM     12  C   UNL     1       2.730   5.011  -9.053  0.00  0.00    +0.014 A 
ATOM     13  C   UNL     1       4.034   5.283  -9.310  0.00  0.00    +0.006 A 
ATOM     14  C   UNL     1       5.111   5.221  -8.426  0.00  0.00    +0.000 A 
ATOM     15  C   UNL     1       6.386   5.336  -8.898  0.00  0.00    +0.001 A 
ATOM     16  C   UNL     1       6.650   6.073 -10.036  0.00  0.00    +0.012 A 
ATOM     17  C   UNL     1       5.551   6.384 -10.827  0.00  0.00    +0.064 A 
ATOM     18 CL   UNL     1       5.853   6.843 -12.501  0.00  0.00    -0.082 Cl
ATOM     19  C   UNL     1       4.264   6.094 -10.381  0.00  0.00    +0.040 A 
ATOM     20  S   UNL     1       2.795   6.059 -11.262  0.00  0.00    -0.086 S 
ATOM     21  C   UNL     1       1.887   5.151 -10.130  0.00  0.00    +0.034 A 
ENDBRANCH  11  12
ENDBRANCH  10  11
ENDBRANCH   1  10
BRANCH   1  22
ATOM     22  C   UNL     1       2.747   6.877  -5.997  0.00  0.00    +0.142 C 
BRANCH  22  23
ATOM     23  N   UNL     1       4.044   6.670  -5.354  0.00  0.00    -0.305 N 
ATOM     24  C   UNL     1       4.557   7.594  -4.508  0.00  0.00    +0.179 A 
ATOM     25  N   UNL     1       5.131   7.018  -3.451  0.00  0.00    -0.222 NA
ATOM     26  C   UNL     1       5.133   5.689  -3.654  0.00  0.00    +0.119 A 
ATOM     27  C   UNL     1       4.533   5.492  -4.895  0.00  0.00    +0.098 A 
ENDBRANCH  22  23
ENDBRANCH   1  22
TORSDOF 6
ENDMDL
MODEL 3
REMARK VINA RESULT:      -8.0      2.934      6.317
REMARK  Name = 
REMARK  6 active torsions:
REMARK  status: ('A' for Active; 'I' for Inactive)
REMARK    1  A    between atoms: C_5  and  C_6
REMARK    2  A    between atoms: C_6  and  C_7
REMARK    3  A    between atoms: C_6  and  O_13
REMARK    4  A    between atoms: C_7  and  N_8
REMARK    5  A    between atoms: O_13  and  C_14
REMARK    6  A    between atoms: C_14  and  C_15
REMARK                            x       y       z     vdW  Elec       q    Type
REMARK                         _______ _______ _______ _____ _____    ______ ____
ROOT
ATOM      1  C   UNL     1       1.453   5.266  -7.238  0.00  0.00    +0.161 C 
ENDROOT
BRANCH   1   7
ATOM      2 CL   UNL     1       5.863   7.213  -3.785  0.00  0.00    -0.082 Cl
ATOM      3  C   UNL     1       4.588   6.618  -4.716  0.00  0.00    +0.058 A 
ATOM      4  C   UNL     1       4.339   7.221  -5.933  0.00  0.00    +0.023 A 
ATOM      5  C   UNL     1       3.143   7.005  -6.562  0.00  0.00    +0.057 A 
ATOM      6 CL   UNL     1       2.544   8.091  -7.817  0.00  0.00    -0.082 Cl
ATOM      7  C   UNL     1       2.160   6.184  -6.051  0.00  0.00    +0.017 A 
ATOM      8  C   UNL     1       2.561   5.336  -5.021  0.00  0.00    -0.000 A 
ATOM      9  C   UNL     1       3.614   5.761  -4.220  0.00  0.00    +0.011 A 
ENDBRANCH   1   7
BRANCH   1  10
ATOM     10  O   UNL     1       2.604   4.230  -7.166  0.00  0.00    -0.345 OA
BRANCH  10  11
ATOM     11  C   UNL     1       2.592   3.682  -8.430  0.00  0.00    +0.170 C 
BRANCH  11  12
ATOM     12  C   UNL     1       3.130   4.691  -9.401  0.00  0.00    +0.014 A 
ATOM     13  C   UNL     1       4.415   5.121  -9.436  0.00  0.00    +0.006 A 
ATOM     14  C   UNL     1       5.437   4.836  -8.531  0.00  0.00    +0.000 A 
ATOM     15  C   UNL     1       6.723   5.189  -8.823  0.00  0.00    +0.001 A 
ATOM     16  C   UNL     1       6.986   6.284  -9.623  0.00  0.00    +0.012 A 
ATOM     17  C   UNL     1       5.912   6.770 -10.360  0.00  0.00    +0.064 A 
ATOM     18 CL   UNL     1       6.271   7.788 -11.752  0.00  0.00    -0.082 Cl
ATOM     19  C   UNL     1       4.633   6.260 -10.151  0.00  0.00    +0.040 A 
ATOM     20  S   UNL     1       3.231   6.427 -11.121  0.00  0.00    -0.086 S 
ATOM     21  C   UNL     1       2.344   5.130 -10.439  0.00  0.00    +0.034 A 
ENDBRANCH  11  12
ENDBRANCH  10  11
ENDBRANCH   1  10
BRANCH   1  22
ATOM     22  C   UNL     1       0.553   4.378  -6.121  0.00  0.00    +0.142 C 
BRANCH  22  23
ATOM     23  N   UNL     1      -0.577   5.276  -5.885  0.00  0.00    -0.305 N 
ATOM     24  C   UNL     1      -1.635   5.301  -6.730  0.00  0.00    +0.179 A 
ATOM     25  N   UNL     1      -2.786   5.395  -6.063  0.00  0.00    -0.222 NA
ATOM     26  C   UNL     1      -2.497   5.581  -4.762  0.00  0.00    +0.119 A 
ATOM     27  C   UNL     1      -1.108   5.599  -4.679  0.00  0.00    +0.098 A 
ENDBRANCH  22  23
ENDBRANCH   1  22
TORSDOF 6
ENDMDL
MODEL 4
REMARK VINA RESULT:      -8.0      1.389      2.560
REMARK  Name = 
REMARK  6 active torsions:
REMARK  status: ('A' for Active; 'I' for Inactive)
REMARK    1  A    between atoms: C_5  and  C_6
REMARK    2  A    between atoms: C_6  and  C_7
REMARK    3  A    between atoms: C_6  and  O_13
REMARK    4  A    between atoms: C_7  and  N_8
REMARK    5  A    between atoms: O_13  and  C_14
REMARK    6  A    between atoms: C_14  and  C_15
REMARK                            x       y       z     vdW  Elec       q    Type
REMARK                         _______ _______ _______ _____ _____    ______ ____
ROOT
ATOM      1  C   UNL     1       3.262   5.104  -9.631  0.00  0.00    +0.161 C 
ENDROOT
BRANCH   1   7
ATOM      2 CL   UNL     1       8.765   5.743 -11.746  0.00  0.00    -0.082 Cl
ATOM      3  C   UNL     1       7.223   5.575 -11.082  0.00  0.00    +0.058 A 
ATOM      4  C   UNL     1       6.157   5.432 -11.947  0.00  0.00    +0.023 A 
ATOM      5  C   UNL     1       4.882   5.622 -11.487  0.00  0.00    +0.057 A 
ATOM      6 CL   UNL     1       3.540   5.958 -12.581  0.00  0.00    -0.082 Cl
ATOM      7  C   UNL     1       4.593   5.931 -10.174  0.00  0.00    +0.017 A 
ATOM      8  C   UNL     1       5.632   5.733  -9.268  0.00  0.00    -0.000 A 
ATOM      9  C   UNL     1       6.930   5.848  -9.752  0.00  0.00    +0.011 A 
ENDBRANCH   1   7
BRANCH   1  10
ATOM     10  O   UNL     1       3.764   5.195  -8.167  0.00  0.00    -0.345 OA
BRANCH  10  11
ATOM     11  C   UNL     1       3.083   4.165  -7.554  0.00  0.00    +0.170 C 
BRANCH  11  12
ATOM     12  C   UNL     1       2.424   4.692  -6.314  0.00  0.00    +0.014 A 
ATOM     13  C   UNL     1       3.083   5.119  -5.209  0.00  0.00    +0.006 A 
ATOM     14  C   UNL     1       4.450   5.035  -4.944  0.00  0.00    +0.000 A 
ATOM     15  C   UNL     1       4.976   5.693  -3.869  0.00  0.00    +0.001 A 
ATOM     16  C   UNL     1       4.210   5.923  -2.743  0.00  0.00    +0.012 A 
ATOM     17  C   UNL     1       2.838   5.764  -2.898  0.00  0.00    +0.064 A 
ATOM     18 CL   UNL     1       1.787   6.524  -1.707  0.00  0.00    -0.082 Cl
ATOM     19  C   UNL     1       2.324   5.244  -4.084  0.00  0.00    +0.040 A 
ATOM     20  S   UNL     1       0.711   5.254  -4.661  0.00  0.00    -0.086 S 
ATOM     21  C   UNL     1       1.068   4.917  -6.301  0.00  0.00    +0.034 A 
ENDBRANCH  11  12
ENDBRANCH  10  11
ENDBRANCH   1  10
BRANCH   1  22
ATOM     22  C   UNL     1       2.368   6.521  -9.436  0.00  0.00    +0.142 C 
BRANCH  22  23
ATOM     23  N   UNL     1       1.054   6.101  -9.921  0.00  0.00    -0.305 N 
ATOM     24  C   UNL     1       0.337   6.885 -10.759  0.00  0.00    +0.179 A 
ATOM     25  N   UNL     1      -0.255   6.163 -11.712  0.00  0.00    -0.222 NA
ATOM     26  C   UNL     1      -0.053   4.863 -11.431  0.00  0.00    +0.119 A 
ATOM     27  C   UNL     1       0.688   4.838 -10.254  0.00  0.00    +0.098 A 
ENDBRANCH  22  23
ENDBRANCH   1  22
TORSDOF 6
ENDMDL
MODEL 5
REMARK VINA RESULT:      -8.0      2.526      3.694
REMARK  Name = 
REMARK  6 active torsions:
REMARK  status: ('A' for Active; 'I' for Inactive)
REMARK    1  A    between atoms: C_5  and  C_6
REMARK    2  A    between atoms: C_6  and  C_7
REMARK    3  A    between atoms: C_6  and  O_13
REMARK    4  A    between atoms: C_7  and  N_8
REMARK    5  A    between atoms: O_13  and  C_14
REMARK    6  A    between atoms: C_14  and  C_15
REMARK                            x       y       z     vdW  Elec       q    Type
REMARK                         _______ _______ _______ _____ _____    ______ ____
ROOT
ATOM      1  C   UNL     1       1.236   5.329  -8.538  0.00  0.00    +0.161 C 
ENDROOT
BRANCH   1   7
ATOM      2 CL   UNL     1       5.355   6.930  -4.584  0.00  0.00    -0.082 Cl
ATOM      3  C   UNL     1       4.150   6.533  -5.695  0.00  0.00    +0.058 A 
ATOM      4  C   UNL     1       4.345   5.423  -6.494  0.00  0.00    +0.023 A 
ATOM      5  C   UNL     1       3.576   5.251  -7.613  0.00  0.00    +0.057 A 
ATOM      6 CL   UNL     1       4.072   4.182  -8.925  0.00  0.00    -0.082 Cl
ATOM      7  C   UNL     1       2.579   6.129  -7.984  0.00  0.00    +0.017 A 
ATOM      8  C   UNL     1       2.178   7.033  -7.003  0.00  0.00    -0.000 A 
ATOM      9  C   UNL     1       3.121   7.396  -6.049  0.00  0.00    +0.011 A 
ENDBRANCH   1   7
BRANCH   1  10
ATOM     10  O   UNL     1       0.321   6.145  -7.589  0.00  0.00    -0.345 OA
BRANCH  10  11
ATOM     11  C   UNL     1      -0.621   5.213  -7.210  0.00  0.00    +0.170 C 
BRANCH  11  12
ATOM     12  C   UNL     1      -1.176   5.602  -5.872  0.00  0.00    +0.014 A 
ATOM     13  C   UNL     1      -0.481   5.572  -4.708  0.00  0.00    +0.006 A 
ATOM     14  C   UNL     1       0.800   5.065  -4.490  0.00  0.00    +0.000 A 
ATOM     15  C   UNL     1       1.429   5.294  -3.301  0.00  0.00    +0.001 A 
ATOM     16  C   UNL     1       0.698   5.461  -2.140  0.00  0.00    +0.012 A 
ATOM     17  C   UNL     1      -0.658   5.717  -2.307  0.00  0.00    +0.064 A 
ATOM     18 CL   UNL     1      -1.525   6.440  -0.956  0.00  0.00    -0.082 Cl
ATOM     19  C   UNL     1      -1.233   5.639  -3.573  0.00  0.00    +0.040 A 
ATOM     20  S   UNL     1      -2.755   6.214  -4.107  0.00  0.00    -0.086 S 
ATOM     21  C   UNL     1      -2.423   6.175  -5.786  0.00  0.00    +0.034 A 
ENDBRANCH  11  12
ENDBRANCH  10  11
ENDBRANCH   1  10
BRANCH   1  22
ATOM     22  C   UNL     1       0.987   6.448  -9.776  0.00  0.00    +0.142 C 
BRANCH  22  23
ATOM     23  N   UNL     1       1.416   5.681 -10.945  0.00  0.00    -0.305 N 
ATOM     24  C   UNL     1       0.538   4.918 -11.638  0.00  0.00    +0.179 A 
ATOM     25  N   UNL     1       0.736   5.022 -12.952  0.00  0.00    -0.222 NA
ATOM     26  C   UNL     1       1.851   5.750 -13.146  0.00  0.00    +0.119 A 
ATOM     27  C   UNL     1       2.319   6.076 -11.877  0.00  0.00    +0.098 A 
ENDBRANCH  22  23
ENDBRANCH   1  22
TORSDOF 6
ENDMDL
MODEL 6
REMARK VINA RESULT:      -8.0      3.829      7.482
REMARK  Name = 
REMARK  6 active torsions:
REMARK  status: ('A' for Active; 'I' for Inactive)
REMARK    1  A    between atoms: C_5  and  C_6
REMARK    2  A    between atoms: C_6  and  C_7
REMARK    3  A    between atoms: C_6  and  O_13
REMARK    4  A    between atoms: C_7  and  N_8
REMARK    5  A    between atoms: O_13  and  C_14
REMARK    6  A    between atoms: C_14  and  C_15
REMARK                            x       y       z     vdW  Elec       q    Type
REMARK                         _______ _______ _______ _____ _____    ______ ____
ROOT
ATOM      1  C   UNL     1       4.195   5.506  -6.353  0.00  0.00    +0.161 C 
ENDROOT
BRANCH   1   7
ATOM      2 CL   UNL     1      -0.048   6.499 -10.375  0.00  0.00    -0.082 Cl
ATOM      3  C   UNL     1       1.175   6.283  -9.234  0.00  0.00    +0.058 A 
ATOM      4  C   UNL     1       1.267   5.056  -8.607  0.00  0.00    +0.023 A 
ATOM      5  C   UNL     1       2.009   4.934  -7.463  0.00  0.00    +0.057 A 
ATOM      6 CL   UNL     1       1.780   3.587  -6.347  0.00  0.00    -0.082 Cl
ATOM      7  C   UNL     1       2.704   5.984  -6.901  0.00  0.00    +0.017 A 
ATOM      8  C   UNL     1       2.874   7.099  -7.719  0.00  0.00    -0.000 A 
ATOM      9  C   UNL     1       1.906   7.331  -8.689  0.00  0.00    +0.011 A 
ENDBRANCH   1   7
BRANCH   1  10
ATOM     10  O   UNL     1       4.887   6.147  -7.583  0.00  0.00    -0.345 OA
BRANCH  10  11
ATOM     11  C   UNL     1       5.530   5.071  -8.157  0.00  0.00    +0.170 C 
BRANCH  11  12
ATOM     12  C   UNL     1       6.161   5.514  -9.443  0.00  0.00    +0.014 A 
ATOM     13  C   UNL     1       5.500   5.661 -10.618  0.00  0.00    +0.006 A 
ATOM     14  C   UNL     1       4.180   5.315 -10.907  0.00  0.00    +0.000 A 
ATOM     15  C   UNL     1       3.614   5.713 -12.083  0.00  0.00    +0.001 A 
ATOM     16  C   UNL     1       4.392   5.902 -13.209  0.00  0.00    +0.012 A 
ATOM     17  C   UNL     1       5.761   5.996 -12.992  0.00  0.00    +0.064 A 
ATOM     18 CL   UNL     1       6.738   6.739 -14.255  0.00  0.00    -0.082 Cl
ATOM     19  C   UNL     1       6.288   5.746 -11.728  0.00  0.00    +0.040 A 
ATOM     20  S   UNL     1       7.846   6.107 -11.114  0.00  0.00    -0.086 S 
ATOM     21  C   UNL     1       7.462   5.956  -9.452  0.00  0.00    +0.034 A 
ENDBRANCH  11  12
ENDBRANCH  10  11
ENDBRANCH   1  10
BRANCH   1  22
ATOM     22  C   UNL     1       4.407   6.924  -5.465  0.00  0.00    +0.142 C 
BRANCH  22  23
ATOM     23  N   UNL     1       4.743   6.389  -4.146  0.00  0.00    -0.305 N 
ATOM     24  C   UNL     1       4.486   7.097  -3.022  0.00  0.00    +0.179 A 
ATOM     25  N   UNL     1       4.018   6.312  -2.051  0.00  0.00    -0.222 NA
ATOM     26  C   UNL     1       4.094   5.038  -2.476  0.00  0.00    +0.119 A 
ATOM     27  C   UNL     1       4.639   5.095  -3.754  0.00  0.00    +0.098 A 
ENDBRANCH  22  23
ENDBRANCH   1  22
TORSDOF 6
ENDMDL
MODEL 7
REMARK VINA RESULT:      -7.9      3.411      8.124
REMARK  Name = 
REMARK  6 active torsions:
REMARK  status: ('A' for Active; 'I' for Inactive)
REMARK    1  A    between atoms: C_5  and  C_6
REMARK    2  A    between atoms: C_6  and  C_7
REMARK    3  A    between atoms: C_6  and  O_13
REMARK    4  A    between atoms: C_7  and  N_8
REMARK    5  A    between atoms: O_13  and  C_14
REMARK    6  A    between atoms: C_14  and  C_15
REMARK                            x       y       z     vdW  Elec       q    Type
REMARK                         _______ _______ _______ _____ _____    ______ ____
ROOT
ATOM      1  C   UNL     1       1.361   5.415  -4.387  0.00  0.00    +0.161 C 
ENDROOT
BRANCH   1   7
ATOM      2 CL   UNL     1      -4.183   6.606  -2.652  0.00  0.00    -0.082 Cl
ATOM      3  C   UNL     1      -2.613   6.315  -3.194  0.00  0.00    +0.058 A 
ATOM      4  C   UNL     1      -1.816   5.469  -2.448  0.00  0.00    +0.023 A 
ATOM      5  C   UNL     1      -0.462   5.460  -2.652  0.00  0.00    +0.057 A 
ATOM      6 CL   UNL     1       0.655   4.821  -1.445  0.00  0.00    -0.082 Cl
ATOM      7  C   UNL     1       0.163   6.246  -3.597  0.00  0.00    +0.017 A 
ATOM      8  C   UNL     1      -0.675   6.820  -4.550  0.00  0.00    -0.000 A 
ATOM      9  C   UNL     1      -1.988   7.078  -4.172  0.00  0.00    +0.011 A 
ENDBRANCH   1   7
BRANCH   1  10
ATOM     10  O   UNL     1       0.722   5.739  -5.762  0.00  0.00    -0.345 OA
BRANCH  10  11
ATOM     11  C   UNL     1       0.883   4.556  -6.451  0.00  0.00    +0.170 C 
BRANCH  11  12
ATOM     12  C   UNL     1       1.791   4.797  -7.620  0.00  0.00    +0.014 A 
ATOM     13  C   UNL     1       1.400   5.319  -8.809  0.00  0.00    +0.006 A 
ATOM     14  C   UNL     1       0.101   5.604  -9.232  0.00  0.00    +0.000 A 
ATOM     15  C   UNL     1      -0.099   6.312 -10.382  0.00  0.00    +0.001 A 
ATOM     16  C   UNL     1       0.815   6.246 -11.416  0.00  0.00    +0.012 A 
ATOM     17  C   UNL     1       2.060   5.720 -11.093  0.00  0.00    +0.064 A 
ATOM     18 CL   UNL     1       3.403   6.078 -12.175  0.00  0.00    -0.082 Cl
ATOM     19  C   UNL     1       2.277   5.155  -9.839  0.00  0.00    +0.040 A 
ATOM     20  S   UNL     1       3.756   4.751  -9.076  0.00  0.00    -0.086 S 
ATOM     21  C   UNL     1       3.148   4.633  -7.479  0.00  0.00    +0.034 A 
ENDBRANCH  11  12
ENDBRANCH  10  11
ENDBRANCH   1  10
BRANCH   1  22
ATOM     22  C   UNL     1       2.342   6.783  -4.495  0.00  0.00    +0.142 C 
BRANCH  22  23
ATOM     23  N   UNL     1       3.445   6.415  -3.608  0.00  0.00    -0.305 N 
ATOM     24  C   UNL     1       3.641   7.063  -2.436  0.00  0.00    +0.179 A 
ATOM     25  N   UNL     1       3.974   6.215  -1.462  0.00  0.00    -0.222 NA
ATOM     26  C   UNL     1       4.145   4.999  -2.012  0.00  0.00    +0.119 A 
ATOM     27  C   UNL     1       3.903   5.160  -3.373  0.00  0.00    +0.098 A 
ENDBRANCH  22  23
ENDBRANCH   1  22
TORSDOF 6
ENDMDL
MODEL 8
REMARK VINA RESULT:      -7.9      3.492      8.071
REMARK  Name = 
REMARK  6 active torsions:
REMARK  status: ('A' for Active; 'I' for Inactive)
REMARK    1  A    between atoms: C_5  and  C_6
REMARK    2  A    between atoms: C_6  and  C_7
REMARK    3  A    between atoms: C_6  and  O_13
REMARK    4  A    between atoms: C_7  and  N_8
REMARK    5  A    between atoms: O_13  and  C_14
REMARK    6  A    between atoms: C_14  and  C_15
REMARK                            x       y       z     vdW  Elec       q    Type
REMARK                         _______ _______ _______ _____ _____    ______ ____
ROOT
ATOM      1  C   UNL     1       3.291   5.667  -5.011  0.00  0.00    +0.161 C 
ENDROOT
BRANCH   1   7
ATOM      2 CL   UNL     1      -2.451   5.987  -6.457  0.00  0.00    -0.082 Cl
ATOM      3  C   UNL     1      -0.830   5.940  -5.995  0.00  0.00    +0.058 A 
ATOM      4  C   UNL     1      -0.008   5.016  -6.609  0.00  0.00    +0.023 A 
ATOM      5  C   UNL     1       1.206   4.714  -6.051  0.00  0.00    +0.057 A 
ATOM      6 CL   UNL     1       2.071   3.232  -6.458  0.00  0.00    -0.082 Cl
ATOM      7  C   UNL     1       1.675   5.310  -4.900  0.00  0.00    +0.017 A 
ATOM      8  C   UNL     1       0.998   6.460  -4.500  0.00  0.00    -0.000 A 
ATOM      9  C   UNL     1      -0.341   6.568  -4.857  0.00  0.00    +0.011 A 
ENDBRANCH   1   7
BRANCH   1  10
ATOM     10  O   UNL     1       3.113   6.159  -6.470  0.00  0.00    -0.345 OA
BRANCH  10  11
ATOM     11  C   UNL     1       4.363   5.945  -7.011  0.00  0.00    +0.170 C 
BRANCH  11  12
ATOM     12  C   UNL     1       4.228   5.793  -8.497  0.00  0.00    +0.014 A 
ATOM     13  C   UNL     1       5.268   5.679  -9.360  0.00  0.00    +0.006 A 
ATOM     14  C   UNL     1       6.628   5.810  -9.082  0.00  0.00    +0.000 A 
ATOM     15  C   UNL     1       7.551   5.467 -10.027  0.00  0.00    +0.001 A 
ATOM     16  C   UNL     1       7.252   5.570 -11.372  0.00  0.00    +0.012 A 
ATOM     17  C   UNL     1       5.904   5.703 -11.686  0.00  0.00    +0.064 A 
ATOM     18 CL   UNL     1       5.408   5.319 -13.331  0.00  0.00    -0.082 Cl
ATOM     19  C   UNL     1       4.965   5.882 -10.673  0.00  0.00    +0.040 A 
ATOM     20  S   UNL     1       3.260   5.739 -10.742  0.00  0.00    -0.086 S 
ATOM     21  C   UNL     1       2.988   5.603  -9.057  0.00  0.00    +0.034 A 
ENDBRANCH  11  12
ENDBRANCH  10  11
ENDBRANCH   1  10
BRANCH   1  22
ATOM     22  C   UNL     1       3.062   7.233  -4.430  0.00  0.00    +0.142 C 
BRANCH  22  23
ATOM     23  N   UNL     1       3.964   7.246  -3.278  0.00  0.00    -0.305 N 
ATOM     24  C   UNL     1       3.940   8.264  -2.386  0.00  0.00    +0.179 A 
ATOM     25  N   UNL     1       4.060   7.817  -1.136  0.00  0.00    -0.222 NA
ATOM     26  C   UNL     1       4.310   6.497  -1.190  0.00  0.00    +0.119 A 
ATOM     27  C   UNL     1       4.342   6.171  -2.543  0.00  0.00    +0.098 A 
ENDBRANCH  22  23
ENDBRANCH   1  22
TORSDOF 6
ENDMDL
MODEL 9
REMARK VINA RESULT:      -7.8      3.566      7.878
REMARK  Name = 
REMARK  6 active torsions:
REMARK  status: ('A' for Active; 'I' for Inactive)
REMARK    1  A    between atoms: C_5  and  C_6
REMARK    2  A    between atoms: C_6  and  C_7
REMARK    3  A    between atoms: C_6  and  O_13
REMARK    4  A    between atoms: C_7  and  N_8
REMARK    5  A    between atoms: O_13  and  C_14
REMARK    6  A    between atoms: C_14  and  C_15
REMARK                            x       y       z     vdW  Elec       q    Type
REMARK                         _______ _______ _______ _____ _____    ______ ____
ROOT
ATOM      1  C   UNL     1       3.880   5.523  -6.583  0.00  0.00    +0.161 C 
ENDROOT
BRANCH   1   7
ATOM      2 CL   UNL     1      -0.436   6.530 -10.523  0.00  0.00    -0.082 Cl
ATOM      3  C   UNL     1       0.813   6.309  -9.411  0.00  0.00    +0.058 A 
ATOM      4  C   UNL     1       0.841   5.127  -8.696  0.00  0.00    +0.023 A 
ATOM      5  C   UNL     1       1.617   5.036  -7.572  0.00  0.00    +0.057 A 
ATOM      6 CL   UNL     1       1.337   3.795  -6.349  0.00  0.00    -0.082 Cl
ATOM      7  C   UNL     1       2.408   6.069  -7.115  0.00  0.00    +0.017 A 
ATOM      8  C   UNL     1       2.625   7.105  -8.021  0.00  0.00    -0.000 A 
ATOM      9  C   UNL     1       1.638   7.336  -8.973  0.00  0.00    +0.011 A 
ENDBRANCH   1   7
BRANCH   1  10
ATOM     10  O   UNL     1       4.601   6.222  -7.765  0.00  0.00    -0.345 OA
BRANCH  10  11
ATOM     11  C   UNL     1       5.326   5.192  -8.323  0.00  0.00    +0.170 C 
BRANCH  11  12
ATOM     12  C   UNL     1       5.275   5.318  -9.817  0.00  0.00    +0.014 A 
ATOM     13  C   UNL     1       6.355   5.504 -10.615  0.00  0.00    +0.006 A 
ATOM     14  C   UNL     1       7.673   5.747 -10.227  0.00  0.00    +0.000 A 
ATOM     15  C   UNL     1       8.672   5.713 -11.156  0.00  0.00    +0.001 A 
ATOM     16  C   UNL     1       8.418   6.039 -12.474  0.00  0.00    +0.012 A 
ATOM     17  C   UNL     1       7.079   6.061 -12.846  0.00  0.00    +0.064 A 
ATOM     18 CL   UNL     1       6.708   5.949 -14.564  0.00  0.00    -0.082 Cl
ATOM     19  C   UNL     1       6.083   5.921 -11.883  0.00  0.00    +0.040 A 
ATOM     20  S   UNL     1       4.417   5.583 -12.092  0.00  0.00    -0.086 S 
ATOM     21  C   UNL     1       4.096   5.088 -10.484  0.00  0.00    +0.034 A 
ENDBRANCH  11  12
ENDBRANCH  10  11
ENDBRANCH   1  10
BRANCH   1  22
ATOM     22  C   UNL     1       4.115   6.879  -5.608  0.00  0.00    +0.142 C 
BRANCH  22  23
ATOM     23  N   UNL     1       3.667   6.378  -4.308  0.00  0.00    -0.305 N 
ATOM     24  C   UNL     1       3.890   5.094  -3.943  0.00  0.00    +0.179 A 
ATOM     25  N   UNL     1       4.252   5.010  -2.662  0.00  0.00    -0.222 NA
ATOM     26  C   UNL     1       4.135   6.235  -2.118  0.00  0.00    +0.119 A 
ATOM     27  C   UNL     1       3.676   7.063  -3.138  0.00  0.00    +0.098 A 
ENDBRANCH  22  23
ENDBRANCH   1  22
TORSDOF 6
ENDMDL
