MODEL 1
REMARK VINA RESULT:      -9.5      0.000      0.000
REMARK  Name = 
REMARK  3 active torsions:
REMARK  status: ('A' for Active; 'I' for Inactive)
REMARK    1  A    between atoms: N_2  and  C_4
REMARK    2  A    between atoms: C_15  and  N_16
REMARK    3  A    between atoms: C_21  and  C_22
REMARK                            x       y       z     vdW  Elec       q    Type
REMARK                         _______ _______ _______ _____ _____    ______ ____
ROOT
ATOM      1  C   UNL     1       0.190   6.554  -4.678  0.00  0.00    +0.044 A 
ATOM      2  C   UNL     1       1.302   6.826  -5.463  0.00  0.00    -0.002 A 
ATOM      3  C   UNL     1       1.162   7.433  -6.828  0.00  0.00    +0.032 C 
ATOM      4  C   UNL     1       1.679   6.133  -7.727  0.00  0.00    +0.033 C 
ATOM      5  C   UNL     1       3.241   6.487  -7.429  0.00  0.00    +0.054 C 
ATOM      6  C   UNL     1       3.595   6.318  -6.035  0.00  0.00    +0.197 C 
ATOM      7  O   UNL     1       4.711   5.838  -5.759  0.00  0.00    -0.287 OA
ATOM      8  C   UNL     1       3.985   6.194  -8.454  0.00  0.00    +0.207 C 
ATOM      9  O   UNL     1       5.319   5.937  -8.101  0.00  0.00    -0.289 OA
ATOM     10  C   UNL     1       3.655   5.719  -9.771  0.00  0.00    +0.237 C 
ATOM     11  C   UNL     1       2.050   5.645 -10.002  0.00  0.00    +0.065 C 
ATOM     12  C   UNL     1       2.009   6.528 -11.501  0.00  0.00    +0.124 C 
ATOM     13  C   UNL     1       2.768   5.332 -12.318  0.00  0.00    +0.195 C 
ATOM     14  C   UNL     1       4.058   5.678 -12.220  0.00  0.00    +0.130 C 
ATOM     15  O   UNL     1       2.304   5.133 -13.612  0.00  0.00    -0.290 OA
ATOM     16  O   UNL     1       3.918   4.331  -9.747  0.00  0.00    -0.210 OA
ATOM     17  C   UNL     1       4.337   6.271 -10.903  0.00  0.00    +0.215 C 
ATOM     18  O   UNL     1       5.353   6.975 -10.773  0.00  0.00    -0.288 OA
ATOM     19  C   UNL     1       1.735   7.010  -9.141  0.00  0.00    +0.010 C 
ATOM     20  C   UNL     1       2.496   6.275  -5.065  0.00  0.00    +0.075 A 
ATOM     21  C   UNL     1       2.618   5.484  -3.930  0.00  0.00    +0.199 A 
ATOM     22  O   UNL     1       3.737   4.674  -3.727  0.00  0.00    -0.286 OA
ATOM     23  C   UNL     1       1.484   5.112  -3.223  0.00  0.00    +0.043 A 
ATOM     24  C   UNL     1       0.264   5.591  -3.679  0.00  0.00    +0.017 A 
ENDROOT
BRANCH   1  26
ATOM     25  C   UNL     1      -1.639   8.165  -4.540  0.00  0.00    +0.112 C 
ATOM     26  N   UNL     1      -1.111   6.929  -5.097  0.00  0.00    -0.304 N 
ATOM     27  C   UNL     1      -2.018   5.955  -5.648  0.00  0.00    +0.112 C 
ENDBRANCH   1  26
BRANCH  14  28
ATOM     28  C   UNL     1       5.015   5.610 -13.300  0.00  0.00    +0.290 C 
ATOM     29  O   UNL     1       5.101   6.520 -14.149  0.00  0.00    -0.266 OA
ATOM     30  N   UNL     1       6.195   4.839 -13.044  0.00  0.00    -0.084 NA
ENDBRANCH  14  28
BRANCH  12  31
ATOM     31  N   UNL     1       0.563   5.955 -11.820  0.00  0.00    -0.265 NA
ATOM     32  C   UNL     1       0.397   4.792 -11.014  0.00  0.00    +0.090 C 
ATOM     33  C   UNL     1      -0.356   7.014 -11.617  0.00  0.00    +0.090 C 
ENDBRANCH  12  31
TORSDOF 3
ENDMDL
MODEL 2
REMARK VINA RESULT:      -9.3      2.534      8.056
REMARK  Name = 
REMARK  3 active torsions:
REMARK  status: ('A' for Active; 'I' for Inactive)
REMARK    1  A    between atoms: N_2  and  C_4
REMARK    2  A    between atoms: C_15  and  N_16
REMARK    3  A    between atoms: C_21  and  C_22
REMARK                            x       y       z     vdW  Elec       q    Type
REMARK                         _______ _______ _______ _____ _____    ______ ____
ROOT
ATOM      1  C   UNL     1       4.361   6.553 -11.120  0.00  0.00    +0.044 A 
ATOM      2  C   UNL     1       3.265   6.828 -10.312  0.00  0.00    -0.002 A 
ATOM      3  C   UNL     1       3.432   7.466  -8.964  0.00  0.00    +0.032 C 
ATOM      4  C   UNL     1       2.955   6.178  -8.026  0.00  0.00    +0.033 C 
ATOM      5  C   UNL     1       1.381   6.508  -8.290  0.00  0.00    +0.054 C 
ATOM      6  C   UNL     1       0.994   6.305  -9.672  0.00  0.00    +0.197 C 
ATOM      7  O   UNL     1      -0.122   5.806  -9.909  0.00  0.00    -0.287 OA
ATOM      8  C   UNL     1       0.667   6.227  -7.241  0.00  0.00    +0.207 C 
ATOM      9  O   UNL     1      -0.673   5.948  -7.555  0.00  0.00    -0.289 OA
ATOM     10  C   UNL     1       1.035   5.784  -5.923  0.00  0.00    +0.237 C 
ATOM     11  C   UNL     1       2.647   5.734  -5.732  0.00  0.00    +0.065 C 
ATOM     12  C   UNL     1       2.714   6.649  -4.254  0.00  0.00    +0.124 C 
ATOM     13  C   UNL     1       1.991   5.462  -3.392  0.00  0.00    +0.195 C 
ATOM     14  C   UNL     1       0.696   5.791  -3.465  0.00  0.00    +0.130 C 
ATOM     15  O   UNL     1       2.491   5.296  -2.107  0.00  0.00    -0.290 OA
ATOM     16  O   UNL     1       0.790   4.394  -5.912  0.00  0.00    -0.210 OA
ATOM     17  C   UNL     1       0.376   6.352  -4.787  0.00  0.00    +0.215 C 
ATOM     18  O   UNL     1      -0.652   7.041  -4.905  0.00  0.00    -0.288 OA
ATOM     19  C   UNL     1       2.923   7.085  -6.629  0.00  0.00    +0.010 C 
ATOM     20  C   UNL     1       2.069   6.255 -10.668  0.00  0.00    +0.075 A 
ATOM     21  C   UNL     1       1.928   5.438 -11.783  0.00  0.00    +0.199 A 
ATOM     22  O   UNL     1       0.814   4.611 -11.941  0.00  0.00    -0.286 OA
ATOM     23  C   UNL     1       3.048   5.065 -12.511  0.00  0.00    +0.043 A 
ATOM     24  C   UNL     1       4.273   5.568 -12.096  0.00  0.00    +0.017 A 
ENDROOT
BRANCH   1  26
ATOM     25  C   UNL     1       6.206   8.122 -11.416  0.00  0.00    +0.112 C 
ATOM     26  N   UNL     1       5.667   6.951 -10.741  0.00  0.00    -0.304 N 
ATOM     27  C   UNL     1       6.565   6.025 -10.102  0.00  0.00    +0.112 C 
ENDBRANCH   1  26
BRANCH  14  28
ATOM     28  C   UNL     1      -0.233   5.734  -2.359  0.00  0.00    +0.290 C 
ATOM     29  O   UNL     1      -0.301   6.655  -1.521  0.00  0.00    -0.266 OA
ATOM     30  N   UNL     1      -1.417   4.955  -2.574  0.00  0.00    -0.084 NA
ENDBRANCH  14  28
BRANCH  12  31
ATOM     31  N   UNL     1       4.175   6.100  -3.959  0.00  0.00    -0.265 NA
ATOM     32  C   UNL     1       4.753   6.974  -2.993  0.00  0.00    +0.090 C 
ATOM     33  C   UNL     1       4.039   4.738  -3.592  0.00  0.00    +0.090 C 
ENDBRANCH  12  31
TORSDOF 3
ENDMDL
MODEL 3
REMARK VINA RESULT:      -9.0      2.520      4.033
REMARK  Name = 
REMARK  3 active torsions:
REMARK  status: ('A' for Active; 'I' for Inactive)
REMARK    1  A    between atoms: N_2  and  C_4
REMARK    2  A    between atoms: C_15  and  N_16
REMARK    3  A    between atoms: C_21  and  C_22
REMARK                            x       y       z     vdW  Elec       q    Type
REMARK                         _______ _______ _______ _____ _____    ______ ____
ROOT
ATOM      1  C   UNL     1       2.274   5.457  -3.602  0.00  0.00    +0.044 A 
ATOM      2  C   UNL     1       1.746   5.020  -4.810  0.00  0.00    -0.002 A 
ATOM      3  C   UNL     1       2.629   4.487  -5.899  0.00  0.00    +0.032 C 
ATOM      4  C   UNL     1       2.408   5.704  -7.010  0.00  0.00    +0.033 C 
ATOM      5  C   UNL     1       0.981   5.076  -7.484  0.00  0.00    +0.054 C 
ATOM      6  C   UNL     1      -0.029   5.141  -6.447  0.00  0.00    +0.197 C 
ATOM      7  O   UNL     1      -1.199   5.413  -6.773  0.00  0.00    -0.287 OA
ATOM      8  C   UNL     1       0.792   5.267  -8.756  0.00  0.00    +0.207 C 
ATOM      9  O   UNL     1      -0.568   5.278  -9.107  0.00  0.00    -0.289 OA
ATOM     10  C   UNL     1       1.636   5.830  -9.775  0.00  0.00    +0.237 C 
ATOM     11  C   UNL     1       3.114   6.187  -9.205  0.00  0.00    +0.065 C 
ATOM     12  C   UNL     1       4.023   5.368 -10.443  0.00  0.00    +0.124 C 
ATOM     13  C   UNL     1       3.571   6.438 -11.595  0.00  0.00    +0.195 C 
ATOM     14  C   UNL     1       2.474   5.872 -12.111  0.00  0.00    +0.130 C 
ATOM     15  O   UNL     1       4.565   6.752 -12.512  0.00  0.00    -0.290 OA
ATOM     16  O   UNL     1       1.170   7.150  -9.962  0.00  0.00    -0.210 OA
ATOM     17  C   UNL     1       1.692   5.201 -11.060  0.00  0.00    +0.215 C 
ATOM     18  O   UNL     1       0.873   4.329 -11.397  0.00  0.00    -0.288 OA
ATOM     19  C   UNL     1       3.191   4.872  -8.221  0.00  0.00    +0.010 C 
ATOM     20  C   UNL     1       0.437   5.345  -5.072  0.00  0.00    +0.075 A 
ATOM     21  C   UNL     1      -0.350   6.069  -4.185  0.00  0.00    +0.199 A 
ATOM     22  O   UNL     1      -1.544   6.667  -4.596  0.00  0.00    -0.286 OA
ATOM     23  C   UNL     1       0.218   6.611  -3.042  0.00  0.00    +0.043 A 
ATOM     24  C   UNL     1       1.566   6.363  -2.823  0.00  0.00    +0.017 A 
ENDROOT
BRANCH   1  26
ATOM     25  C   UNL     1       3.999   4.687  -2.057  0.00  0.00    +0.112 C 
ATOM     26  N   UNL     1       3.657   5.326  -3.318  0.00  0.00    -0.304 N 
ATOM     27  C   UNL     1       4.628   6.159  -3.978  0.00  0.00    +0.112 C 
ENDBRANCH   1  26
BRANCH  14  28
ATOM     28  C   UNL     1       2.165   5.805 -13.521  0.00  0.00    +0.290 C 
ATOM     29  O   UNL     1       2.457   4.802 -14.202  0.00  0.00    -0.266 OA
ATOM     30  N   UNL     1       1.049   6.592 -13.957  0.00  0.00    -0.084 NA
ENDBRANCH  14  28
BRANCH  12  31
ATOM     31  N   UNL     1       5.324   6.192 -10.058  0.00  0.00    -0.265 NA
ATOM     32  C   UNL     1       6.441   5.403 -10.459  0.00  0.00    +0.090 C 
ATOM     33  C   UNL     1       5.196   7.472 -10.653  0.00  0.00    +0.090 C 
ENDBRANCH  12  31
TORSDOF 3
ENDMDL
MODEL 4
REMARK VINA RESULT:      -9.0      1.850      7.386
REMARK  Name = 
REMARK  3 active torsions:
REMARK  status: ('A' for Active; 'I' for Inactive)
REMARK    1  A    between atoms: N_2  and  C_4
REMARK    2  A    between atoms: C_15  and  N_16
REMARK    3  A    between atoms: C_21  and  C_22
REMARK                            x       y       z     vdW  Elec       q    Type
REMARK                         _______ _______ _______ _____ _____    ______ ____
ROOT
ATOM      1  C   UNL     1       2.238   5.442 -11.343  0.00  0.00    +0.044 A 
ATOM      2  C   UNL     1       2.716   5.029 -10.107  0.00  0.00    -0.002 A 
ATOM      3  C   UNL     1       1.793   4.487  -9.056  0.00  0.00    +0.032 C 
ATOM      4  C   UNL     1       1.935   5.720  -7.949  0.00  0.00    +0.033 C 
ATOM      5  C   UNL     1       3.350   5.128  -7.400  0.00  0.00    +0.054 C 
ATOM      6  C   UNL     1       4.407   5.205  -8.388  0.00  0.00    +0.197 C 
ATOM      7  O   UNL     1       5.555   5.506  -8.009  0.00  0.00    -0.287 OA
ATOM      8  C   UNL     1       3.474   5.336  -6.123  0.00  0.00    +0.207 C 
ATOM      9  O   UNL     1       4.814   5.380  -5.707  0.00  0.00    -0.289 OA
ATOM     10  C   UNL     1       2.569   5.890  -5.151  0.00  0.00    +0.237 C 
ATOM     11  C   UNL     1       1.114   6.208  -5.795  0.00  0.00    +0.065 C 
ATOM     12  C   UNL     1       0.164   5.382  -4.594  0.00  0.00    +0.124 C 
ATOM     13  C   UNL     1       0.536   6.473  -3.434  0.00  0.00    +0.195 C 
ATOM     14  C   UNL     1       1.619   5.936  -2.859  0.00  0.00    +0.130 C 
ATOM     15  O   UNL     1      -0.508   6.774  -2.569  0.00  0.00    -0.290 OA
ATOM     16  O   UNL     1       2.997   7.221  -4.957  0.00  0.00    -0.210 OA
ATOM     17  C   UNL     1       2.465   5.273  -3.863  0.00  0.00    +0.215 C 
ATOM     18  O   UNL     1       3.286   4.422  -3.479  0.00  0.00    -0.288 OA
ATOM     19  C   UNL     1       1.112   4.882  -6.768  0.00  0.00    +0.010 C 
ATOM     20  C   UNL     1       4.004   5.385  -9.786  0.00  0.00    +0.075 A 
ATOM     21  C   UNL     1       4.817   6.118 -10.642  0.00  0.00    +0.199 A 
ATOM     22  O   UNL     1       5.976   6.746 -10.181  0.00  0.00    -0.286 OA
ATOM     23  C   UNL     1       4.293   6.635 -11.817  0.00  0.00    +0.043 A 
ATOM     24  C   UNL     1       2.963   6.356 -12.098  0.00  0.00    +0.017 A 
ENDROOT
BRANCH   1  26
ATOM     25  C   UNL     1       0.603   4.509 -12.897  0.00  0.00    +0.112 C 
ATOM     26  N   UNL     1       0.874   5.277 -11.692  0.00  0.00    -0.304 N 
ATOM     27  C   UNL     1      -0.132   6.172 -11.181  0.00  0.00    +0.112 C 
ENDBRANCH   1  26
BRANCH  14  28
ATOM     28  C   UNL     1       1.861   5.890  -1.435  0.00  0.00    +0.290 C 
ATOM     29  O   UNL     1       1.600   4.871  -0.766  0.00  0.00    -0.266 OA
ATOM     30  N   UNL     1       2.901   6.747  -0.947  0.00  0.00    -0.084 NA
ENDBRANCH  14  28
BRANCH  12  31
ATOM     31  N   UNL     1      -1.135   6.173  -5.050  0.00  0.00    -0.265 NA
ATOM     32  C   UNL     1      -2.245   5.531  -4.427  0.00  0.00    +0.090 C 
ATOM     33  C   UNL     1      -0.923   7.537  -4.732  0.00  0.00    +0.090 C 
ENDBRANCH  12  31
TORSDOF 3
ENDMDL
MODEL 5
REMARK VINA RESULT:      -8.0      3.973      9.024
REMARK  Name = 
REMARK  3 active torsions:
REMARK  status: ('A' for Active; 'I' for Inactive)
REMARK    1  A    between atoms: N_2  and  C_4
REMARK    2  A    between atoms: C_15  and  N_16
REMARK    3  A    between atoms: C_21  and  C_22
REMARK                            x       y       z     vdW  Elec       q    Type
REMARK                         _______ _______ _______ _____ _____    ______ ____
ROOT
ATOM      1  C   UNL     1      -0.480   5.606  -6.065  0.00  0.00    +0.044 A 
ATOM      2  C   UNL     1       0.522   5.194  -5.197  0.00  0.00    -0.002 A 
ATOM      3  C   UNL     1       0.322   5.216  -3.710  0.00  0.00    +0.032 C 
ATOM      4  C   UNL     1       1.414   6.413  -3.336  0.00  0.00    +0.033 C 
ATOM      5  C   UNL     1       2.661   5.368  -3.427  0.00  0.00    +0.054 C 
ATOM      6  C   UNL     1       2.881   4.879  -4.773  0.00  0.00    +0.197 C 
ATOM      7  O   UNL     1       4.052   4.729  -5.168  0.00  0.00    -0.287 OA
ATOM      8  C   UNL     1       3.579   5.667  -2.557  0.00  0.00    +0.207 C 
ATOM      9  O   UNL     1       4.853   5.211  -2.933  0.00  0.00    -0.289 OA
ATOM     10  C   UNL     1       3.627   6.662  -1.519  0.00  0.00    +0.237 C 
ATOM     11  C   UNL     1       2.222   7.464  -1.388  0.00  0.00    +0.065 C 
ATOM     12  C   UNL     1       2.020   7.259   0.328  0.00  0.00    +0.124 C 
ATOM     13  C   UNL     1       3.282   8.240   0.675  0.00  0.00    +0.195 C 
ATOM     14  C   UNL     1       4.308   7.384   0.755  0.00  0.00    +0.130 C 
ATOM     15  O   UNL     1       3.095   9.049   1.787  0.00  0.00    -0.290 OA
ATOM     16  O   UNL     1       4.410   7.714  -2.043  0.00  0.00    -0.210 OA
ATOM     17  C   UNL     1       4.168   6.311  -0.241  0.00  0.00    +0.215 C 
ATOM     18  O   UNL     1       4.801   5.255  -0.068  0.00  0.00    -0.288 OA
ATOM     19  C   UNL     1       1.292   6.143  -1.697  0.00  0.00    +0.010 C 
ATOM     20  C   UNL     1       1.778   5.029  -5.728  0.00  0.00    +0.075 A 
ATOM     21  C   UNL     1       2.062   5.249  -7.070  0.00  0.00    +0.199 A 
ATOM     22  O   UNL     1       3.377   5.401  -7.518  0.00  0.00    -0.286 OA
ATOM     23  C   UNL     1       1.090   5.782  -7.903  0.00  0.00    +0.043 A 
ATOM     24  C   UNL     1      -0.155   6.039  -7.345  0.00  0.00    +0.017 A 
ENDROOT
BRANCH   1  26
ATOM     25  C   UNL     1      -2.869   5.114  -5.977  0.00  0.00    +0.112 C 
ATOM     26  N   UNL     1      -1.762   5.972  -5.583  0.00  0.00    -0.304 N 
ATOM     27  C   UNL     1      -2.028   7.316  -5.141  0.00  0.00    +0.112 C 
ENDBRANCH   1  26
BRANCH  14  28
ATOM     28  C   UNL     1       5.339   7.425   1.767  0.00  0.00    +0.290 C 
ATOM     29  O   UNL     1       6.184   8.341   1.796  0.00  0.00    -0.266 OA
ATOM     30  N   UNL     1       5.022   6.785   3.010  0.00  0.00    -0.084 NA
ENDBRANCH  14  28
BRANCH  12  31
ATOM     31  N   UNL     1       0.967   8.448   0.365  0.00  0.00    -0.265 NA
ATOM     32  C   UNL     1      -0.062   8.055   1.268  0.00  0.00    +0.090 C 
ATOM     33  C   UNL     1       1.685   9.627   0.684  0.00  0.00    +0.090 C 
ENDBRANCH  12  31
TORSDOF 3
ENDMDL
MODEL 6
REMARK VINA RESULT:      -7.7      2.466      7.819
REMARK  Name = 
REMARK  3 active torsions:
REMARK  status: ('A' for Active; 'I' for Inactive)
REMARK    1  A    between atoms: N_2  and  C_4
REMARK    2  A    between atoms: C_15  and  N_16
REMARK    3  A    between atoms: C_21  and  C_22
REMARK                            x       y       z     vdW  Elec       q    Type
REMARK                         _______ _______ _______ _____ _____    ______ ____
ROOT
ATOM      1  C   UNL     1       1.859   5.453 -10.119  0.00  0.00    +0.044 A 
ATOM      2  C   UNL     1       1.916   4.971  -8.817  0.00  0.00    -0.002 A 
ATOM      3  C   UNL     1       0.668   4.723  -8.023  0.00  0.00    +0.032 C 
ATOM      4  C   UNL     1       0.867   5.913  -6.879  0.00  0.00    +0.033 C 
ATOM      5  C   UNL     1       1.914   4.992  -6.036  0.00  0.00    +0.054 C 
ATOM      6  C   UNL     1       3.152   4.759  -6.751  0.00  0.00    +0.197 C 
ATOM      7  O   UNL     1       4.220   4.764  -6.110  0.00  0.00    -0.287 OA
ATOM      8  C   UNL     1       1.791   5.203  -4.759  0.00  0.00    +0.207 C 
ATOM      9  O   UNL     1       2.964   4.912  -4.044  0.00  0.00    -0.289 OA
ATOM     10  C   UNL     1       0.864   6.005  -4.006  0.00  0.00    +0.237 C 
ATOM     11  C   UNL     1      -0.271   6.669  -4.959  0.00  0.00    +0.065 C 
ATOM     12  C   UNL     1      -1.652   6.158  -4.033  0.00  0.00    +0.124 C 
ATOM     13  C   UNL     1      -1.285   7.153  -2.788  0.00  0.00    +0.195 C 
ATOM     14  C   UNL     1      -0.542   6.373  -1.994  0.00  0.00    +0.130 C 
ATOM     15  O   UNL     1      -2.385   7.744  -2.178  0.00  0.00    -0.290 OA
ATOM     16  O   UNL     1       1.567   7.186  -3.681  0.00  0.00    -0.210 OA
ATOM     17  C   UNL     1       0.310   5.479  -2.795  0.00  0.00    +0.215 C 
ATOM     18  O   UNL     1       0.769   4.458  -2.256  0.00  0.00    -0.288 OA
ATOM     19  C   UNL     1      -0.394   5.358  -5.943  0.00  0.00    +0.010 C 
ATOM     20  C   UNL     1       3.143   4.991  -8.199  0.00  0.00    +0.075 A 
ATOM     21  C   UNL     1       4.292   5.459  -8.823  0.00  0.00    +0.199 A 
ATOM     22  O   UNL     1       5.437   5.779  -8.089  0.00  0.00    -0.286 OA
ATOM     23  C   UNL     1       4.206   6.055 -10.072  0.00  0.00    +0.043 A 
ATOM     24  C   UNL     1       2.950   6.122 -10.659  0.00  0.00    +0.017 A 
ENDROOT
BRANCH   1  26
ATOM     25  C   UNL     1       0.235   4.610 -11.733  0.00  0.00    +0.112 C 
ATOM     26  N   UNL     1       0.617   5.637 -10.776  0.00  0.00    -0.304 N 
ATOM     27  C   UNL     1       0.008   6.939 -10.853  0.00  0.00    +0.112 C 
ENDBRANCH   1  26
BRANCH  14  28
ATOM     28  C   UNL     1      -0.655   6.313  -0.555  0.00  0.00    +0.290 C 
ATOM     29  O   UNL     1      -1.606   5.726  -0.003  0.00  0.00    -0.266 OA
ATOM     30  N   UNL     1       0.577   6.397   0.174  0.00  0.00    -0.084 NA
ENDBRANCH  14  28
BRANCH  12  31
ATOM     31  N   UNL     1      -2.560   7.244  -4.754  0.00  0.00    -0.265 NA
ATOM     32  C   UNL     1      -1.783   8.436  -4.837  0.00  0.00    +0.090 C 
ATOM     33  C   UNL     1      -2.995   6.675  -5.976  0.00  0.00    +0.090 C 
ENDBRANCH  12  31
TORSDOF 3
ENDMDL
MODEL 7
REMARK VINA RESULT:      -7.1      3.533      5.757
REMARK  Name = 
REMARK  3 active torsions:
REMARK  status: ('A' for Active; 'I' for Inactive)
REMARK    1  A    between atoms: N_2  and  C_4
REMARK    2  A    between atoms: C_15  and  N_16
REMARK    3  A    between atoms: C_21  and  C_22
REMARK                            x       y       z     vdW  Elec       q    Type
REMARK                         _______ _______ _______ _____ _____    ______ ____
ROOT
ATOM      1  C   UNL     1       2.513   6.470  -0.286  0.00  0.00    +0.044 A 
ATOM      2  C   UNL     1       1.653   5.974  -1.258  0.00  0.00    -0.002 A 
ATOM      3  C   UNL     1       2.171   5.199  -2.434  0.00  0.00    +0.032 C 
ATOM      4  C   UNL     1       1.809   6.298  -3.628  0.00  0.00    +0.033 C 
ATOM      5  C   UNL     1       0.250   5.826  -3.655  0.00  0.00    +0.054 C 
ATOM      6  C   UNL     1      -0.453   6.151  -2.430  0.00  0.00    +0.197 C 
ATOM      7  O   UNL     1      -1.632   6.545  -2.508  0.00  0.00    -0.287 OA
ATOM      8  C   UNL     1      -0.232   5.892  -4.860  0.00  0.00    +0.207 C 
ATOM      9  O   UNL     1      -1.627   6.053  -4.880  0.00  0.00    -0.289 OA
ATOM     10  C   UNL     1       0.383   6.209  -6.121  0.00  0.00    +0.237 C 
ATOM     11  C   UNL     1       1.986   6.419  -5.974  0.00  0.00    +0.065 C 
ATOM     12  C   UNL     1       2.460   5.342  -7.257  0.00  0.00    +0.124 C 
ATOM     13  C   UNL     1       1.851   6.324  -8.414  0.00  0.00    +0.195 C 
ATOM     14  C   UNL     1       0.604   5.861  -8.569  0.00  0.00    +0.130 C 
ATOM     15  O   UNL     1       2.609   6.387  -9.575  0.00  0.00    -0.290 OA
ATOM     16  O   UNL     1       0.029   7.550  -6.385  0.00  0.00    -0.210 OA
ATOM     17  C   UNL     1       0.045   5.433  -7.277  0.00  0.00    +0.215 C 
ATOM     18  O   UNL     1      -0.921   4.651  -7.278  0.00  0.00    -0.288 OA
ATOM     19  C   UNL     1       2.168   5.229  -4.853  0.00  0.00    +0.010 C 
ATOM     20  C   UNL     1       0.363   6.447  -1.249  0.00  0.00    +0.075 A 
ATOM     21  C   UNL     1      -0.092   7.373  -0.318  0.00  0.00    +0.199 A 
ATOM     22  O   UNL     1      -1.279   8.080  -0.521  0.00  0.00    -0.286 OA
ATOM     23  C   UNL     1       0.800   7.958   0.566  0.00  0.00    +0.043 A 
ATOM     24  C   UNL     1       2.126   7.551   0.496  0.00  0.00    +0.017 A 
ENDROOT
BRANCH   1  26
ATOM     25  C   UNL     1       4.799   7.324  -0.311  0.00  0.00    +0.112 C 
ATOM     26  N   UNL     1       3.900   6.180  -0.320  0.00  0.00    -0.304 N 
ATOM     27  C   UNL     1       4.376   4.907  -0.793  0.00  0.00    +0.112 C 
ENDBRANCH   1  26
BRANCH  14  28
ATOM     28  C   UNL     1      -0.055   5.674  -9.841  0.00  0.00    +0.290 C 
ATOM     29  O   UNL     1      -0.346   6.644 -10.569  0.00  0.00    -0.266 OA
ATOM     30  N   UNL     1       0.173   4.415 -10.486  0.00  0.00    -0.084 NA
ENDBRANCH  14  28
BRANCH  12  31
ATOM     31  N   UNL     1       3.898   6.015  -7.314  0.00  0.00    -0.265 NA
ATOM     32  C   UNL     1       4.503   5.794  -6.043  0.00  0.00    +0.090 C 
ATOM     33  C   UNL     1       4.563   5.475  -8.443  0.00  0.00    +0.090 C 
ENDBRANCH  12  31
TORSDOF 3
ENDMDL
