MODEL 1
REMARK VINA RESULT:      -9.1      0.000      0.000
REMARK  Name = 
REMARK  0 active torsions:
REMARK  status: ('A' for Active; 'I' for Inactive)
REMARK                            x       y       z     vdW  Elec       q    Type
REMARK                         _______ _______ _______ _____ _____    ______ ____
ROOT
ATOM      1  C   UNL     1       7.632   4.833 -12.297  0.00  0.00    +0.033 C 
ATOM      2  C   UNL     1       7.162   6.262 -12.261  0.00  0.00    +0.127 C 
ATOM      3  C   UNL     1       5.860   6.442 -11.557  0.00  0.00    +0.026 C 
ATOM      4  C   UNL     1       6.333   5.576 -10.261  0.00  0.00    +0.002 C 
ATOM      5  C   UNL     1       5.106   6.213  -9.285  0.00  0.00    +0.001 C 
ATOM      6  C   UNL     1       3.986   5.109  -9.913  0.00  0.00    +0.003 C 
ATOM      7  C   UNL     1       3.551   6.127 -11.111  0.00  0.00    +0.000 C 
ATOM      8  C   UNL     1       2.791   5.610  -8.930  0.00  0.00    +0.016 C 
ATOM      9  C   UNL     1       3.043   4.980  -7.610  0.00  0.00    -0.042 C 
ATOM     10  C   UNL     1       1.999   4.941  -6.790  0.00  0.00    +0.029 C 
ATOM     11  C   UNL     1       0.659   5.317  -7.265  0.00  0.00    +0.173 C 
ATOM     12  C   UNL     1       0.418   5.745  -8.678  0.00  0.00    +0.069 C 
ATOM     13  O   UNL     1      -0.350   4.785  -6.709  0.00  0.00    -0.291 OA
ATOM     14  C   UNL     1       4.380   5.331  -7.035  0.00  0.00    +0.022 C 
ATOM     15  C   UNL     1       2.787   7.088  -8.912  0.00  0.00    +0.004 C 
ATOM     16  C   UNL     1       1.500   5.108  -9.540  0.00  0.00    +0.012 C 
ATOM     17  C   UNL     1       5.469   5.239  -8.059  0.00  0.00    +0.004 C 
ATOM     18  C   UNL     1       7.404   6.745  -9.885  0.00  0.00    +0.003 C 
ATOM     19  C   UNL     1       5.775   7.872 -11.145  0.00  0.00    +0.002 C 
ATOM     20  C   UNL     1       4.660   5.834 -12.124  0.00  0.00    +0.002 C 
ATOM     21  C   UNL     1       8.057   6.977 -11.247  0.00  0.00    +0.030 C 
ATOM     22  O   UNL     1       7.155   6.880 -13.491  0.00  0.00    -0.226 OA
ENDROOT
TORSDOF 0
ENDMDL
MODEL 2
REMARK VINA RESULT:      -8.7      3.108      5.264
REMARK  Name = 
REMARK  0 active torsions:
REMARK  status: ('A' for Active; 'I' for Inactive)
REMARK                            x       y       z     vdW  Elec       q    Type
REMARK                         _______ _______ _______ _____ _____    ______ ____
ROOT
ATOM      1  C   UNL     1       3.257   3.912  -8.983  0.00  0.00    +0.033 C 
ATOM      2  C   UNL     1       2.956   5.383  -9.077  0.00  0.00    +0.127 C 
ATOM      3  C   UNL     1       1.894   5.834  -8.131  0.00  0.00    +0.026 C 
ATOM      4  C   UNL     1       2.586   5.097  -6.854  0.00  0.00    +0.002 C 
ATOM      5  C   UNL     1       1.710   6.023  -5.742  0.00  0.00    +0.001 C 
ATOM      6  C   UNL     1       0.366   5.007  -5.902  0.00  0.00    +0.003 C 
ATOM      7  C   UNL     1      -0.251   5.902  -7.120  0.00  0.00    +0.000 C 
ATOM      8  C   UNL     1      -0.491   5.797  -4.767  0.00  0.00    +0.016 C 
ATOM      9  C   UNL     1       0.017   5.325  -3.455  0.00  0.00    -0.042 C 
ATOM     10  C   UNL     1      -0.788   5.542  -2.422  0.00  0.00    +0.029 C 
ATOM     11  C   UNL     1      -2.160   6.029  -2.630  0.00  0.00    +0.173 C 
ATOM     12  C   UNL     1      -2.701   6.288  -4.001  0.00  0.00    +0.069 C 
ATOM     13  O   UNL     1      -3.046   5.721  -1.776  0.00  0.00    -0.291 OA
ATOM     14  C   UNL     1       1.483   5.566  -3.271  0.00  0.00    +0.022 C 
ATOM     15  C   UNL     1      -0.343   7.250  -4.994  0.00  0.00    +0.004 C 
ATOM     16  C   UNL     1      -1.936   5.398  -4.971  0.00  0.00    +0.012 C 
ATOM     17  C   UNL     1       2.268   5.186  -4.488  0.00  0.00    +0.004 C 
ATOM     18  C   UNL     1       3.829   6.148  -6.935  0.00  0.00    +0.003 C 
ATOM     19  C   UNL     1       2.057   7.305  -7.954  0.00  0.00    +0.002 C 
ATOM     20  C   UNL     1       0.536   5.324  -8.298  0.00  0.00    +0.002 C 
ATOM     21  C   UNL     1       4.141   6.100  -8.430  0.00  0.00    +0.030 C 
ATOM     22  O   UNL     1       2.704   5.822 -10.358  0.00  0.00    -0.226 OA
ENDROOT
TORSDOF 0
ENDMDL
MODEL 3
REMARK VINA RESULT:      -8.5      3.751      6.101
REMARK  Name = 
REMARK  0 active torsions:
REMARK  status: ('A' for Active; 'I' for Inactive)
REMARK                            x       y       z     vdW  Elec       q    Type
REMARK                         _______ _______ _______ _____ _____    ______ ____
ROOT
ATOM      1  C   UNL     1       3.680   4.343  -8.991  0.00  0.00    +0.033 C 
ATOM      2  C   UNL     1       2.359   4.961  -8.620  0.00  0.00    +0.127 C 
ATOM      3  C   UNL     1       2.209   5.209  -7.157  0.00  0.00    +0.026 C 
ATOM      4  C   UNL     1       3.656   5.947  -7.037  0.00  0.00    +0.002 C 
ATOM      5  C   UNL     1       3.257   6.671  -5.561  0.00  0.00    +0.001 C 
ATOM      6  C   UNL     1       3.643   5.253  -4.722  0.00  0.00    +0.003 C 
ATOM      7  C   UNL     1       2.119   4.683  -4.845  0.00  0.00    +0.000 C 
ATOM      8  C   UNL     1       3.371   5.923  -3.265  0.00  0.00    +0.016 C 
ATOM      9  C   UNL     1       4.573   6.732  -2.945  0.00  0.00    -0.042 C 
ATOM     10  C   UNL     1       4.726   7.042  -1.663  0.00  0.00    +0.029 C 
ATOM     11  C   UNL     1       3.861   6.438  -0.638  0.00  0.00    +0.173 C 
ATOM     12  C   UNL     1       2.792   5.454  -0.994  0.00  0.00    +0.069 C 
ATOM     13  O   UNL     1       4.325   6.294   0.534  0.00  0.00    -0.291 OA
ATOM     14  C   UNL     1       4.860   7.789  -3.966  0.00  0.00    +0.022 C 
ATOM     15  C   UNL     1       2.113   6.696  -3.331  0.00  0.00    +0.004 C 
ATOM     16  C   UNL     1       3.208   4.775  -2.292  0.00  0.00    +0.012 C 
ATOM     17  C   UNL     1       4.738   7.264  -5.363  0.00  0.00    +0.004 C 
ATOM     18  C   UNL     1       3.088   7.183  -7.935  0.00  0.00    +0.003 C 
ATOM     19  C   UNL     1       1.151   6.247  -6.993  0.00  0.00    +0.002 C 
ATOM     20  C   UNL     1       2.179   4.069  -6.245  0.00  0.00    +0.002 C 
ATOM     21  C   UNL     1       2.427   6.417  -9.081  0.00  0.00    +0.030 C 
ATOM     22  O   UNL     1       1.267   4.293  -9.128  0.00  0.00    -0.226 OA
ENDROOT
TORSDOF 0
ENDMDL
MODEL 4
REMARK VINA RESULT:      -8.5      2.620      6.023
REMARK  Name = 
REMARK  0 active torsions:
REMARK  status: ('A' for Active; 'I' for Inactive)
REMARK                            x       y       z     vdW  Elec       q    Type
REMARK                         _______ _______ _______ _____ _____    ______ ____
ROOT
ATOM      1  C   UNL     1       4.127   7.679  -3.554  0.00  0.00    +0.033 C 
ATOM      2  C   UNL     1       3.242   6.463  -3.560  0.00  0.00    +0.127 C 
ATOM      3  C   UNL     1       2.688   6.138  -4.906  0.00  0.00    +0.026 C 
ATOM      4  C   UNL     1       4.141   6.244  -5.635  0.00  0.00    +0.002 C 
ATOM      5  C   UNL     1       3.614   5.383  -6.993  0.00  0.00    +0.001 C 
ATOM      6  C   UNL     1       2.917   6.779  -7.650  0.00  0.00    +0.003 C 
ATOM      7  C   UNL     1       1.486   6.489  -6.922  0.00  0.00    +0.000 C 
ATOM      8  C   UNL     1       2.472   6.030  -9.023  0.00  0.00    +0.016 C 
ATOM      9  C   UNL     1       3.690   5.943  -9.867  0.00  0.00    -0.042 C 
ATOM     10  C   UNL     1       3.474   5.726 -11.158  0.00  0.00    +0.029 C 
ATOM     11  C   UNL     1       2.111   5.777 -11.709  0.00  0.00    +0.173 C 
ATOM     12  C   UNL     1       0.927   6.082 -10.846  0.00  0.00    +0.069 C 
ATOM     13  O   UNL     1       1.962   6.110 -12.924  0.00  0.00    -0.291 OA
ATOM     14  C   UNL     1       4.814   5.208  -9.205  0.00  0.00    +0.022 C 
ATOM     15  C   UNL     1       1.877   4.722  -8.674  0.00  0.00    +0.004 C 
ATOM     16  C   UNL     1       1.421   6.908  -9.666  0.00  0.00    +0.012 C 
ATOM     17  C   UNL     1       4.994   5.629  -7.780  0.00  0.00    +0.004 C 
ATOM     18  C   UNL     1       4.629   4.914  -4.830  0.00  0.00    +0.003 C 
ATOM     19  C   UNL     1       2.290   4.701  -4.885  0.00  0.00    +0.002 C 
ATOM     20  C   UNL     1       1.768   7.080  -5.539  0.00  0.00    +0.002 C 
ATOM     21  C   UNL     1       4.172   5.259  -3.413  0.00  0.00    +0.030 C 
ATOM     22  O   UNL     1       2.250   6.488  -2.605  0.00  0.00    -0.226 OA
ENDROOT
TORSDOF 0
ENDMDL
MODEL 5
REMARK VINA RESULT:      -8.4      1.262      6.245
REMARK  Name = 
REMARK  0 active torsions:
REMARK  status: ('A' for Active; 'I' for Inactive)
REMARK                            x       y       z     vdW  Elec       q    Type
REMARK                         _______ _______ _______ _____ _____    ______ ____
ROOT
ATOM      1  C   UNL     1       1.766   3.853  -6.397  0.00  0.00    +0.033 C 
ATOM      2  C   UNL     1       2.086   5.318  -6.270  0.00  0.00    +0.127 C 
ATOM      3  C   UNL     1       3.026   5.814  -7.316  0.00  0.00    +0.026 C 
ATOM      4  C   UNL     1       2.179   5.141  -8.533  0.00  0.00    +0.002 C 
ATOM      5  C   UNL     1       2.917   6.121  -9.698  0.00  0.00    +0.001 C 
ATOM      6  C   UNL     1       4.265   5.098  -9.753  0.00  0.00    +0.003 C 
ATOM      7  C   UNL     1       5.032   5.932  -8.578  0.00  0.00    +0.000 C 
ATOM      8  C   UNL     1       4.981   5.942 -10.945  0.00  0.00    +0.016 C 
ATOM      9  C   UNL     1       4.313   5.536 -12.206  0.00  0.00    -0.042 C 
ATOM     10  C   UNL     1       4.987   5.803 -13.318  0.00  0.00    +0.029 C 
ATOM     11  C   UNL     1       6.377   6.279 -13.256  0.00  0.00    +0.173 C 
ATOM     12  C   UNL     1       7.084   6.471 -11.951  0.00  0.00    +0.069 C 
ATOM     13  O   UNL     1       7.150   6.013 -14.226  0.00  0.00    -0.291 OA
ATOM     14  C   UNL     1       2.837   5.785 -12.197  0.00  0.00    +0.022 C 
ATOM     15  C   UNL     1       4.871   7.383 -10.631  0.00  0.00    +0.004 C 
ATOM     16  C   UNL     1       6.438   5.534 -10.939  0.00  0.00    +0.012 C 
ATOM     17  C   UNL     1       2.205   5.346 -10.913  0.00  0.00    +0.004 C 
ATOM     18  C   UNL     1       0.962   6.187  -8.249  0.00  0.00    +0.003 C 
ATOM     19  C   UNL     1       2.851   7.293  -7.399  0.00  0.00    +0.002 C 
ATOM     20  C   UNL     1       4.391   5.297  -7.342  0.00  0.00    +0.002 C 
ATOM     21  C   UNL     1       0.835   6.066  -6.731  0.00  0.00    +0.030 C 
ATOM     22  O   UNL     1       2.495   5.694  -5.010  0.00  0.00    -0.226 OA
ENDROOT
TORSDOF 0
ENDMDL
MODEL 6
REMARK VINA RESULT:      -8.2      3.735      7.246
REMARK  Name = 
REMARK  0 active torsions:
REMARK  status: ('A' for Active; 'I' for Inactive)
REMARK                            x       y       z     vdW  Elec       q    Type
REMARK                         _______ _______ _______ _____ _____    ______ ____
ROOT
ATOM      1  C   UNL     1       3.682   4.384  -1.167  0.00  0.00    +0.033 C 
ATOM      2  C   UNL     1       3.746   5.862  -1.436  0.00  0.00    +0.127 C 
ATOM      3  C   UNL     1       3.756   6.203  -2.888  0.00  0.00    +0.026 C 
ATOM      4  C   UNL     1       2.482   5.244  -3.219  0.00  0.00    +0.002 C 
ATOM      5  C   UNL     1       2.177   6.018  -4.692  0.00  0.00    +0.001 C 
ATOM      6  C   UNL     1       3.373   5.099  -5.462  0.00  0.00    +0.003 C 
ATOM      7  C   UNL     1       4.530   6.201  -5.131  0.00  0.00    +0.000 C 
ATOM      8  C   UNL     1       3.058   5.734  -6.925  0.00  0.00    +0.016 C 
ATOM      9  C   UNL     1       1.849   5.039  -7.433  0.00  0.00    -0.042 C 
ATOM     10  C   UNL     1       1.653   5.123  -8.743  0.00  0.00    +0.029 C 
ATOM     11  C   UNL     1       2.686   5.696  -9.621  0.00  0.00    +0.173 C 
ATOM     12  C   UNL     1       3.988   6.192  -9.079  0.00  0.00    +0.069 C 
ATOM     13  O   UNL     1       2.747   5.294 -10.823  0.00  0.00    -0.291 OA
ATOM     14  C   UNL     1       0.664   5.184  -6.530  0.00  0.00    +0.022 C 
ATOM     15  C   UNL     1       2.906   7.198  -6.779  0.00  0.00    +0.004 C 
ATOM     16  C   UNL     1       4.266   5.435  -7.787  0.00  0.00    +0.012 C 
ATOM     17  C   UNL     1       1.027   4.969  -5.094  0.00  0.00    +0.004 C 
ATOM     18  C   UNL     1       1.522   6.240  -2.357  0.00  0.00    +0.003 C 
ATOM     19  C   UNL     1       3.307   7.619  -3.012  0.00  0.00    +0.002 C 
ATOM     20  C   UNL     1       4.893   5.784  -3.704  0.00  0.00    +0.002 C 
ATOM     21  C   UNL     1       2.363   6.417  -1.093  0.00  0.00    +0.030 C 
ATOM     22  O   UNL     1       4.759   6.510  -0.764  0.00  0.00    -0.226 OA
ENDROOT
TORSDOF 0
ENDMDL
MODEL 7
REMARK VINA RESULT:      -8.2      3.086      6.845
REMARK  Name = 
REMARK  0 active torsions:
REMARK  status: ('A' for Active; 'I' for Inactive)
REMARK                            x       y       z     vdW  Elec       q    Type
REMARK                         _______ _______ _______ _____ _____    ______ ____
ROOT
ATOM      1  C   UNL     1      -0.775   7.636  -4.762  0.00  0.00    +0.033 C 
ATOM      2  C   UNL     1      -0.371   6.187  -4.736  0.00  0.00    +0.127 C 
ATOM      3  C   UNL     1      -0.048   5.635  -6.084  0.00  0.00    +0.026 C 
ATOM      4  C   UNL     1       0.935   6.877  -6.462  0.00  0.00    +0.002 C 
ATOM      5  C   UNL     1       1.682   6.012  -7.710  0.00  0.00    +0.001 C 
ATOM      6  C   UNL     1       0.415   6.381  -8.770  0.00  0.00    +0.003 C 
ATOM      7  C   UNL     1      -0.417   5.042  -8.352  0.00  0.00    +0.000 C 
ATOM      8  C   UNL     1       1.130   5.652 -10.036  0.00  0.00    +0.016 C 
ATOM      9  C   UNL     1       2.156   6.598 -10.541  0.00  0.00    -0.042 C 
ATOM     10  C   UNL     1       2.577   6.373 -11.779  0.00  0.00    +0.029 C 
ATOM     11  C   UNL     1       1.907   5.377 -12.629  0.00  0.00    +0.173 C 
ATOM     12  C   UNL     1       0.731   4.593 -12.141  0.00  0.00    +0.069 C 
ATOM     13  O   UNL     1       1.930   5.544 -13.887  0.00  0.00    -0.291 OA
ATOM     14  C   UNL     1       3.171   6.973  -9.506  0.00  0.00    +0.022 C 
ATOM     15  C   UNL     1       1.668   4.350  -9.585  0.00  0.00    +0.004 C 
ATOM     16  C   UNL     1       0.044   5.421 -11.064  0.00  0.00    +0.012 C 
ATOM     17  C   UNL     1       2.535   7.289  -8.188  0.00  0.00    +0.004 C 
ATOM     18  C   UNL     1       1.987   6.377  -5.322  0.00  0.00    +0.003 C 
ATOM     19  C   UNL     1       0.800   4.427  -5.874  0.00  0.00    +0.002 C 
ATOM     20  C   UNL     1      -1.109   5.546  -7.084  0.00  0.00    +0.002 C 
ATOM     21  C   UNL     1       1.039   6.150  -4.145  0.00  0.00    +0.030 C 
ATOM     22  O   UNL     1      -1.252   5.372  -4.060  0.00  0.00    -0.226 OA
ENDROOT
TORSDOF 0
ENDMDL
MODEL 8
REMARK VINA RESULT:      -8.2      3.091      5.633
REMARK  Name = 
REMARK  0 active torsions:
REMARK  status: ('A' for Active; 'I' for Inactive)
REMARK                            x       y       z     vdW  Elec       q    Type
REMARK                         _______ _______ _______ _____ _____    ______ ____
ROOT
ATOM      1  C   UNL     1       3.608   6.870  -9.366  0.00  0.00    +0.033 C 
ATOM      2  C   UNL     1       3.988   5.802  -8.377  0.00  0.00    +0.127 C 
ATOM      3  C   UNL     1       3.084   5.739  -7.193  0.00  0.00    +0.026 C 
ATOM      4  C   UNL     1       1.734   5.735  -8.105  0.00  0.00    +0.002 C 
ATOM      5  C   UNL     1       0.781   5.144  -6.838  0.00  0.00    +0.001 C 
ATOM      6  C   UNL     1       0.624   6.698  -6.186  0.00  0.00    +0.003 C 
ATOM      7  C   UNL     1       1.954   6.518  -5.258  0.00  0.00    +0.000 C 
ATOM      8  C   UNL     1      -0.379   6.208  -5.003  0.00  0.00    +0.016 C 
ATOM      9  C   UNL     1      -1.720   6.064  -5.622  0.00  0.00    -0.042 C 
ATOM     10  C   UNL     1      -2.740   6.052  -4.773  0.00  0.00    +0.029 C 
ATOM     11  C   UNL     1      -2.536   6.366  -3.351  0.00  0.00    +0.173 C 
ATOM     12  C   UNL     1      -1.185   6.717  -2.811  0.00  0.00    +0.069 C 
ATOM     13  O   UNL     1      -3.499   6.875  -2.700  0.00  0.00    -0.291 OA
ATOM     14  C   UNL     1      -1.740   5.097  -6.765  0.00  0.00    +0.022 C 
ATOM     15  C   UNL     1       0.161   4.962  -4.417  0.00  0.00    +0.004 C 
ATOM     16  C   UNL     1      -0.372   7.302  -3.958  0.00  0.00    +0.012 C 
ATOM     17  C   UNL     1      -0.576   5.297  -7.686  0.00  0.00    +0.004 C 
ATOM     18  C   UNL     1       2.127   4.255  -8.662  0.00  0.00    +0.003 C 
ATOM     19  C   UNL     1       3.235   4.381  -6.595  0.00  0.00    +0.002 C 
ATOM     20  C   UNL     1       3.038   6.875  -6.277  0.00  0.00    +0.002 C 
ATOM     21  C   UNL     1       3.597   4.470  -9.019  0.00  0.00    +0.030 C 
ATOM     22  O   UNL     1       5.311   5.838  -7.994  0.00  0.00    -0.226 OA
ENDROOT
TORSDOF 0
ENDMDL
MODEL 9
REMARK VINA RESULT:      -8.1      3.184      5.434
REMARK  Name = 
REMARK  0 active torsions:
REMARK  status: ('A' for Active; 'I' for Inactive)
REMARK                            x       y       z     vdW  Elec       q    Type
REMARK                         _______ _______ _______ _____ _____    ______ ____
ROOT
ATOM      1  C   UNL     1       1.437   4.554  -9.762  0.00  0.00    +0.033 C 
ATOM      2  C   UNL     1       1.513   6.031  -9.488  0.00  0.00    +0.127 C 
ATOM      3  C   UNL     1       1.644   6.362  -8.040  0.00  0.00    +0.026 C 
ATOM      4  C   UNL     1       2.859   5.301  -7.810  0.00  0.00    +0.002 C 
ATOM      5  C   UNL     1       3.340   6.040  -6.366  0.00  0.00    +0.001 C 
ATOM      6  C   UNL     1       2.138   5.215  -5.504  0.00  0.00    +0.003 C 
ATOM      7  C   UNL     1       1.051   6.408  -5.743  0.00  0.00    +0.000 C 
ATOM      8  C   UNL     1       2.616   5.813  -4.070  0.00  0.00    +0.016 C 
ATOM      9  C   UNL     1       3.801   5.020  -3.658  0.00  0.00    -0.042 C 
ATOM     10  C   UNL     1       4.105   5.080  -2.368  0.00  0.00    +0.029 C 
ATOM     11  C   UNL     1       3.195   5.728  -1.412  0.00  0.00    +0.173 C 
ATOM     12  C   UNL     1       1.897   6.331  -1.850  0.00  0.00    +0.069 C 
ATOM     13  O   UNL     1       3.196   5.325  -0.209  0.00  0.00    -0.291 OA
ATOM     14  C   UNL     1       4.920   5.075  -4.652  0.00  0.00    +0.022 C 
ATOM     15  C   UNL     1       2.874   7.261  -4.227  0.00  0.00    +0.004 C 
ATOM     16  C   UNL     1       1.460   5.607  -3.116  0.00  0.00    +0.012 C 
ATOM     17  C   UNL     1       4.429   4.899  -6.055  0.00  0.00    +0.004 C 
ATOM     18  C   UNL     1       3.826   6.223  -8.744  0.00  0.00    +0.003 C 
ATOM     19  C   UNL     1       2.214   7.737  -7.951  0.00  0.00    +0.002 C 
ATOM     20  C   UNL     1       0.546   6.031  -7.137  0.00  0.00    +0.002 C 
ATOM     21  C   UNL     1       2.906   6.475  -9.938  0.00  0.00    +0.030 C 
ATOM     22  O   UNL     1       0.507   6.762 -10.079  0.00  0.00    -0.226 OA
ENDROOT
TORSDOF 0
ENDMDL
