MODEL 1
REMARK VINA RESULT:      -9.0      0.000      0.000
REMARK  Name = 
REMARK  1 active torsions:
REMARK  status: ('A' for Active; 'I' for Inactive)
REMARK    1  A    between atoms: C_2  and  C_3
REMARK                            x       y       z     vdW  Elec       q    Type
REMARK                         _______ _______ _______ _____ _____    ______ ____
ROOT
ATOM      1  C   UNL     1       0.067   6.271  -4.755  0.00  0.00    +0.180 C 
ATOM      2  C   UNL     1       0.246   5.615  -6.071  0.00  0.00    +0.037 C 
ATOM      3  C   UNL     1       1.149   6.824  -6.716  0.00  0.00    +0.003 C 
ATOM      4  C   UNL     1       1.826   5.782  -7.890  0.00  0.00    +0.001 C 
ATOM      5  C   UNL     1       0.528   6.079  -8.932  0.00  0.00    +0.004 C 
ATOM      6  C   UNL     1      -0.373   4.910  -8.273  0.00  0.00    +0.000 C 
ATOM      7  C   UNL     1       1.197   5.009 -10.093  0.00  0.00    +0.019 C 
ATOM      8  C   UNL     1       2.111   6.195 -10.708  0.00  0.00    -0.042 C 
ATOM      9  C   UNL     1       2.046   6.418 -11.989  0.00  0.00    +0.029 C 
ATOM     10  C   UNL     1       0.757   7.036 -12.378  0.00  0.00    +0.173 C 
ATOM     11  C   UNL     1      -0.239   6.709 -11.298  0.00  0.00    +0.069 C 
ATOM     12  O   UNL     1       0.374   7.041 -13.586  0.00  0.00    -0.291 OA
ATOM     13  C   UNL     1       3.282   6.439  -9.834  0.00  0.00    +0.022 C 
ATOM     14  C   UNL     1      -0.081   5.236 -11.115  0.00  0.00    +0.012 C 
ATOM     15  C   UNL     1       2.701   6.984  -8.533  0.00  0.00    +0.004 C 
ATOM     16  C   UNL     1       2.331   6.496  -5.624  0.00  0.00    +0.004 C 
ATOM     17  C   UNL     1       1.138   4.435  -5.924  0.00  0.00    +0.003 C 
ATOM     18  C   UNL     1      -0.913   5.476  -6.959  0.00  0.00    +0.003 C 
ATOM     19  C   UNL     1       1.461   6.786  -4.405  0.00  0.00    +0.043 C 
ATOM     20  O   UNL     1      -0.240   5.329  -3.761  0.00  0.00    -0.212 OA
ENDROOT
BRANCH   1  22
ATOM     21  C   UNL     1      -1.643   8.094  -4.682  0.00  0.00    -0.012 C 
ATOM     22  C   UNL     1      -0.917   7.367  -4.772  0.00  0.00    -0.049 C 
ENDBRANCH   1  22
TORSDOF 1
ENDMDL
MODEL 2
REMARK VINA RESULT:      -8.8      2.577      7.022
REMARK  Name = 
REMARK  1 active torsions:
REMARK  status: ('A' for Active; 'I' for Inactive)
REMARK    1  A    between atoms: C_2  and  C_3
REMARK                            x       y       z     vdW  Elec       q    Type
REMARK                         _______ _______ _______ _____ _____    ______ ____
ROOT
ATOM      1  C   UNL     1       4.478   6.087 -10.843  0.00  0.00    +0.180 C 
ATOM      2  C   UNL     1       4.349   5.595  -9.452  0.00  0.00    +0.037 C 
ATOM      3  C   UNL     1       3.434   6.856  -8.934  0.00  0.00    +0.003 C 
ATOM      4  C   UNL     1       2.812   5.953  -7.623  0.00  0.00    +0.001 C 
ATOM      5  C   UNL     1       4.129   6.402  -6.663  0.00  0.00    +0.004 C 
ATOM      6  C   UNL     1       5.041   5.179  -7.199  0.00  0.00    +0.000 C 
ATOM      7  C   UNL     1       3.516   5.470  -5.361  0.00  0.00    +0.019 C 
ATOM      8  C   UNL     1       2.591   6.704  -4.870  0.00  0.00    -0.042 C 
ATOM      9  C   UNL     1       2.684   7.084  -3.628  0.00  0.00    +0.029 C 
ATOM     10  C   UNL     1       3.968   7.771  -3.355  0.00  0.00    +0.173 C 
ATOM     11  C   UNL     1       4.943   7.334  -4.415  0.00  0.00    +0.069 C 
ATOM     12  O   UNL     1       4.381   7.933  -2.168  0.00  0.00    -0.291 OA
ATOM     13  C   UNL     1       1.392   6.815  -5.733  0.00  0.00    +0.022 C 
ATOM     14  C   UNL     1       4.815   5.847  -4.412  0.00  0.00    +0.012 C 
ATOM     15  C   UNL     1       1.927   7.208  -7.108  0.00  0.00    +0.004 C 
ATOM     16  C   UNL     1       2.233   6.372  -9.944  0.00  0.00    +0.004 C 
ATOM     17  C   UNL     1       3.481   4.388  -9.427  0.00  0.00    +0.003 C 
ATOM     18  C   UNL     1       5.533   5.590  -8.588  0.00  0.00    +0.003 C 
ATOM     19  C   UNL     1       3.064   6.527 -11.214  0.00  0.00    +0.043 C 
ATOM     20  O   UNL     1       4.781   5.036 -11.723  0.00  0.00    -0.212 OA
ENDROOT
BRANCH   1  22
ATOM     21  C   UNL     1       6.120   7.939 -11.201  0.00  0.00    -0.012 C 
ATOM     22  C   UNL     1       5.436   7.197 -10.989  0.00  0.00    -0.049 C 
ENDBRANCH   1  22
TORSDOF 1
ENDMDL
MODEL 3
REMARK VINA RESULT:      -8.2      3.567      7.239
REMARK  Name = 
REMARK  1 active torsions:
REMARK  status: ('A' for Active; 'I' for Inactive)
REMARK    1  A    between atoms: C_2  and  C_3
REMARK                            x       y       z     vdW  Elec       q    Type
REMARK                         _______ _______ _______ _____ _____    ______ ____
ROOT
ATOM      1  C   UNL     1       3.542   6.280  -5.759  0.00  0.00    +0.180 C 
ATOM      2  C   UNL     1       2.415   5.713  -4.982  0.00  0.00    +0.037 C 
ATOM      3  C   UNL     1       1.499   7.073  -5.037  0.00  0.00    +0.003 C 
ATOM      4  C   UNL     1       0.063   6.198  -4.736  0.00  0.00    +0.001 C 
ATOM      5  C   UNL     1       0.309   6.328  -3.068  0.00  0.00    +0.004 C 
ATOM      6  C   UNL     1       1.239   5.006  -3.021  0.00  0.00    +0.000 C 
ATOM      7  C   UNL     1      -1.118   5.423  -2.773  0.00  0.00    +0.019 C 
ATOM      8  C   UNL     1      -2.023   6.762  -2.858  0.00  0.00    -0.042 C 
ATOM      9  C   UNL     1      -2.829   7.021  -1.868  0.00  0.00    +0.029 C 
ATOM     10  C   UNL     1      -2.093   7.443  -0.654  0.00  0.00    +0.173 C 
ATOM     11  C   UNL     1      -0.687   6.921  -0.779  0.00  0.00    +0.069 C 
ATOM     12  O   UNL     1      -2.653   7.436   0.484  0.00  0.00    -0.291 OA
ATOM     13  C   UNL     1      -2.219   7.152  -4.273  0.00  0.00    +0.022 C 
ATOM     14  C   UNL     1      -0.880   5.486  -1.138  0.00  0.00    +0.012 C 
ATOM     15  C   UNL     1      -0.833   7.548  -4.773  0.00  0.00    +0.004 C 
ATOM     16  C   UNL     1       1.366   6.893  -6.664  0.00  0.00    +0.004 C 
ATOM     17  C   UNL     1       1.716   4.683  -5.795  0.00  0.00    +0.003 C 
ATOM     18  C   UNL     1       2.608   5.428  -3.557  0.00  0.00    +0.003 C 
ATOM     19  C   UNL     1       2.865   6.994  -6.926  0.00  0.00    +0.043 C 
ATOM     20  O   UNL     1       4.312   5.263  -6.344  0.00  0.00    -0.212 OA
ENDROOT
BRANCH   1  22
ATOM     21  C   UNL     1       5.056   7.773  -4.444  0.00  0.00    -0.012 C 
ATOM     22  C   UNL     1       4.384   7.207  -4.984  0.00  0.00    -0.049 C 
ENDBRANCH   1  22
TORSDOF 1
ENDMDL
MODEL 4
REMARK VINA RESULT:      -7.6      2.097      3.836
REMARK  Name = 
REMARK  1 active torsions:
REMARK  status: ('A' for Active; 'I' for Inactive)
REMARK    1  A    between atoms: C_2  and  C_3
REMARK                            x       y       z     vdW  Elec       q    Type
REMARK                         _______ _______ _______ _____ _____    ______ ____
ROOT
ATOM      1  C   UNL     1      -1.114   6.267  -3.010  0.00  0.00    +0.180 C 
ATOM      2  C   UNL     1      -0.409   6.777  -4.210  0.00  0.00    +0.037 C 
ATOM      3  C   UNL     1      -0.648   5.424  -5.107  0.00  0.00    +0.003 C 
ATOM      4  C   UNL     1      -0.424   6.275  -6.572  0.00  0.00    +0.001 C 
ATOM      5  C   UNL     1       1.246   6.026  -6.484  0.00  0.00    +0.004 C 
ATOM      6  C   UNL     1       1.475   7.341  -5.572  0.00  0.00    +0.000 C 
ATOM      7  C   UNL     1       1.467   6.907  -7.939  0.00  0.00    +0.019 C 
ATOM      8  C   UNL     1       1.200   5.577  -8.823  0.00  0.00    -0.042 C 
ATOM      9  C   UNL     1       2.088   5.248  -9.717  0.00  0.00    +0.029 C 
ATOM     10  C   UNL     1       3.334   4.740  -9.097  0.00  0.00    +0.173 C 
ATOM     11  C   UNL     1       3.382   5.270  -7.689  0.00  0.00    +0.069 C 
ATOM     12  O   UNL     1       4.410   4.666  -9.763  0.00  0.00    -0.291 OA
ATOM     13  C   UNL     1      -0.251   5.289  -8.880  0.00  0.00    +0.022 C 
ATOM     14  C   UNL     1       3.108   6.727  -7.858  0.00  0.00    +0.012 C 
ATOM     15  C   UNL     1      -0.642   4.931  -7.449  0.00  0.00    +0.004 C 
ATOM     16  C   UNL     1      -2.263   5.720  -5.086  0.00  0.00    +0.004 C 
ATOM     17  C   UNL     1      -1.210   7.862  -4.836  0.00  0.00    +0.003 C 
ATOM     18  C   UNL     1       1.044   6.959  -4.156  0.00  0.00    +0.003 C 
ATOM     19  C   UNL     1      -2.388   5.638  -3.567  0.00  0.00    +0.043 C 
ATOM     20  O   UNL     1      -1.548   7.324  -2.195  0.00  0.00    -0.212 OA
ENDROOT
BRANCH   1  22
ATOM     21  C   UNL     1       0.290   4.689  -1.671  0.00  0.00    -0.012 C 
ATOM     22  C   UNL     1      -0.330   5.288  -2.239  0.00  0.00    -0.049 C 
ENDBRANCH   1  22
TORSDOF 1
ENDMDL
MODEL 5
REMARK VINA RESULT:      -7.5      2.800      7.177
REMARK  Name = 
REMARK  1 active torsions:
REMARK  status: ('A' for Active; 'I' for Inactive)
REMARK    1  A    between atoms: C_2  and  C_3
REMARK                            x       y       z     vdW  Elec       q    Type
REMARK                         _______ _______ _______ _____ _____    ______ ____
ROOT
ATOM      1  C   UNL     1       2.043   5.309  -8.140  0.00  0.00    +0.180 C 
ATOM      2  C   UNL     1       2.469   5.011  -6.753  0.00  0.00    +0.037 C 
ATOM      3  C   UNL     1       1.475   6.114  -6.054  0.00  0.00    +0.003 C 
ATOM      4  C   UNL     1       1.524   5.304  -4.550  0.00  0.00    +0.001 C 
ATOM      5  C   UNL     1       2.918   6.156  -4.113  0.00  0.00    +0.004 C 
ATOM      6  C   UNL     1       3.894   5.086  -4.832  0.00  0.00    +0.000 C 
ATOM      7  C   UNL     1       2.979   5.318  -2.618  0.00  0.00    +0.019 C 
ATOM      8  C   UNL     1       1.973   6.389  -1.940  0.00  0.00    -0.042 C 
ATOM      9  C   UNL     1       2.344   6.959  -0.828  0.00  0.00    +0.029 C 
ATOM     10  C   UNL     1       3.438   7.933  -1.045  0.00  0.00    +0.173 C 
ATOM     11  C   UNL     1       4.121   7.559  -2.333  0.00  0.00    +0.069 C 
ATOM     12  O   UNL     1       4.140   8.351  -0.076  0.00  0.00    -0.291 OA
ATOM     13  C   UNL     1       0.580   6.117  -2.364  0.00  0.00    +0.022 C 
ATOM     14  C   UNL     1       4.370   6.095  -2.182  0.00  0.00    +0.012 C 
ATOM     15  C   UNL     1       0.557   6.406  -3.862  0.00  0.00    +0.004 C 
ATOM     16  C   UNL     1       0.181   5.245  -6.573  0.00  0.00    +0.004 C 
ATOM     17  C   UNL     1       1.976   3.666  -6.357  0.00  0.00    +0.003 C 
ATOM     18  C   UNL     1       3.823   5.382  -6.330  0.00  0.00    +0.003 C 
ATOM     19  C   UNL     1       0.521   5.382  -8.053  0.00  0.00    +0.043 C 
ATOM     20  O   UNL     1       2.314   4.227  -8.993  0.00  0.00    -0.212 OA
ENDROOT
BRANCH   1  22
ATOM     21  C   UNL     1       3.026   7.378  -9.144  0.00  0.00    -0.012 C 
ATOM     22  C   UNL     1       2.607   6.561  -8.674  0.00  0.00    -0.049 C 
ENDBRANCH   1  22
TORSDOF 1
ENDMDL
MODEL 6
REMARK VINA RESULT:      -7.2      3.949      6.165
REMARK  Name = 
REMARK  1 active torsions:
REMARK  status: ('A' for Active; 'I' for Inactive)
REMARK    1  A    between atoms: C_2  and  C_3
REMARK                            x       y       z     vdW  Elec       q    Type
REMARK                         _______ _______ _______ _____ _____    ______ ____
ROOT
ATOM      1  C   UNL     1       3.869   7.137  -0.397  0.00  0.00    +0.180 C 
ATOM      2  C   UNL     1       2.782   6.346  -1.018  0.00  0.00    +0.037 C 
ATOM      3  C   UNL     1       2.938   7.023  -2.505  0.00  0.00    +0.003 C 
ATOM      4  C   UNL     1       2.179   5.693  -3.264  0.00  0.00    +0.001 C 
ATOM      5  C   UNL     1       0.660   6.390  -3.012  0.00  0.00    +0.004 C 
ATOM      6  C   UNL     1       0.522   5.750  -1.534  0.00  0.00    +0.000 C 
ATOM      7  C   UNL     1      -0.098   5.039  -3.748  0.00  0.00    +0.019 C 
ATOM      8  C   UNL     1       0.086   5.695  -5.216  0.00  0.00    -0.042 C 
ATOM      9  C   UNL     1      -0.968   5.805  -5.974  0.00  0.00    +0.029 C 
ATOM     10  C   UNL     1      -1.894   6.852  -5.483  0.00  0.00    +0.173 C 
ATOM     11  C   UNL     1      -1.604   7.054  -4.020  0.00  0.00    +0.069 C 
ATOM     12  O   UNL     1      -3.096   6.899  -5.884  0.00  0.00    -0.291 OA
ATOM     13  C   UNL     1       1.483   5.525  -5.676  0.00  0.00    +0.022 C 
ATOM     14  C   UNL     1      -1.601   5.667  -3.471  0.00  0.00    +0.012 C 
ATOM     15  C   UNL     1       2.321   6.377  -4.726  0.00  0.00    +0.004 C 
ATOM     16  C   UNL     1       4.431   6.349  -2.632  0.00  0.00    +0.004 C 
ATOM     17  C   UNL     1       3.203   4.925  -1.140  0.00  0.00    +0.003 C 
ATOM     18  C   UNL     1       1.396   6.604  -0.615  0.00  0.00    +0.003 C 
ATOM     19  C   UNL     1       5.002   7.077  -1.419  0.00  0.00    +0.043 C 
ATOM     20  O   UNL     1       4.368   6.494   0.747  0.00  0.00    -0.212 OA
ENDROOT
BRANCH   1  22
ATOM     21  C   UNL     1       3.340   9.527   0.112  0.00  0.00    -0.012 C 
ATOM     22  C   UNL     1       3.491   8.530  -0.103  0.00  0.00    -0.049 C 
ENDBRANCH   1  22
TORSDOF 1
ENDMDL
MODEL 7
REMARK VINA RESULT:      -7.1      4.339      6.495
REMARK  Name = 
REMARK  1 active torsions:
REMARK  status: ('A' for Active; 'I' for Inactive)
REMARK    1  A    between atoms: C_2  and  C_3
REMARK                            x       y       z     vdW  Elec       q    Type
REMARK                         _______ _______ _______ _____ _____    ______ ____
ROOT
ATOM      1  C   UNL     1       2.406   7.712   0.722  0.00  0.00    +0.180 C 
ATOM      2  C   UNL     1       3.128   6.832  -0.225  0.00  0.00    +0.037 C 
ATOM      3  C   UNL     1       3.069   7.888  -1.481  0.00  0.00    +0.003 C 
ATOM      4  C   UNL     1       4.398   7.144  -2.255  0.00  0.00    +0.001 C 
ATOM      5  C   UNL     1       3.365   6.045  -3.019  0.00  0.00    +0.004 C 
ATOM      6  C   UNL     1       3.397   5.022  -1.767  0.00  0.00    +0.000 C 
ATOM      7  C   UNL     1       4.706   5.284  -3.770  0.00  0.00    +0.019 C 
ATOM      8  C   UNL     1       4.665   6.345  -4.991  0.00  0.00    -0.042 C 
ATOM      9  C   UNL     1       4.620   5.879  -6.207  0.00  0.00    +0.029 C 
ATOM     10  C   UNL     1       3.303   5.277  -6.518  0.00  0.00    +0.173 C 
ATOM     11  C   UNL     1       2.657   4.911  -5.209  0.00  0.00    +0.069 C 
ATOM     12  O   UNL     1       3.159   4.504  -7.513  0.00  0.00    -0.291 OA
ATOM     13  C   UNL     1       5.266   7.630  -4.567  0.00  0.00    +0.022 C 
ATOM     14  C   UNL     1       3.730   4.162  -4.491  0.00  0.00    +0.012 C 
ATOM     15  C   UNL     1       4.322   8.178  -3.500  0.00  0.00    +0.004 C 
ATOM     16  C   UNL     1       4.032   8.915  -0.635  0.00  0.00    +0.004 C 
ATOM     17  C   UNL     1       4.553   6.720   0.183  0.00  0.00    +0.003 C 
ATOM     18  C   UNL     1       2.468   5.614  -0.707  0.00  0.00    +0.003 C 
ATOM     19  C   UNL     1       3.053   9.081   0.524  0.00  0.00    +0.043 C 
ATOM     20  O   UNL     1       2.688   7.359   2.051  0.00  0.00    -0.212 OA
ENDROOT
BRANCH   1  22
ATOM     21  C   UNL     1      -0.075   7.814   0.432  0.00  0.00    -0.012 C 
ATOM     22  C   UNL     1       0.954   7.770   0.484  0.00  0.00    -0.049 C 
ENDBRANCH   1  22
TORSDOF 1
ENDMDL
MODEL 8
REMARK VINA RESULT:      -7.1      1.824      6.405
REMARK  Name = 
REMARK  1 active torsions:
REMARK  status: ('A' for Active; 'I' for Inactive)
REMARK    1  A    between atoms: C_2  and  C_3
REMARK                            x       y       z     vdW  Elec       q    Type
REMARK                         _______ _______ _______ _____ _____    ______ ____
ROOT
ATOM      1  C   UNL     1       2.277   5.528  -9.815  0.00  0.00    +0.180 C 
ATOM      2  C   UNL     1       2.117   6.202  -8.506  0.00  0.00    +0.037 C 
ATOM      3  C   UNL     1       2.546   4.894  -7.613  0.00  0.00    +0.003 C 
ATOM      4  C   UNL     1       2.959   5.864  -6.268  0.00  0.00    +0.001 C 
ATOM      5  C   UNL     1       1.360   5.821  -5.720  0.00  0.00    +0.004 C 
ATOM      6  C   UNL     1       0.930   7.089  -6.627  0.00  0.00    +0.000 C 
ATOM      7  C   UNL     1       1.774   6.820  -4.389  0.00  0.00    +0.019 C 
ATOM      8  C   UNL     1       2.227   5.530  -3.521  0.00  0.00    -0.042 C 
ATOM      9  C   UNL     1       1.707   5.376  -2.337  0.00  0.00    +0.029 C 
ATOM     10  C   UNL     1       0.280   4.986  -2.407  0.00  0.00    +0.173 C 
ATOM     11  C   UNL     1      -0.237   5.421  -3.752  0.00  0.00    +0.069 C 
ATOM     12  O   UNL     1      -0.475   5.093  -1.394  0.00  0.00    -0.291 OA
ATOM     13  C   UNL     1       3.564   5.068  -3.960  0.00  0.00    +0.022 C 
ATOM     14  C   UNL     1       0.211   6.841  -3.854  0.00  0.00    +0.012 C 
ATOM     15  C   UNL     1       3.363   4.567  -5.387  0.00  0.00    +0.004 C 
ATOM     16  C   UNL     1       4.059   4.984  -8.247  0.00  0.00    +0.004 C 
ATOM     17  C   UNL     1       3.187   7.219  -8.333  0.00  0.00    +0.003 C 
ATOM     18  C   UNL     1       0.769   6.560  -8.052  0.00  0.00    +0.003 C 
ATOM     19  C   UNL     1       3.604   4.784  -9.690  0.00  0.00    +0.043 C 
ATOM     20  O   UNL     1       2.473   6.464 -10.843  0.00  0.00    -0.212 OA
ENDROOT
BRANCH   1  22
ATOM     21  C   UNL     1       0.368   4.039 -10.440  0.00  0.00    -0.012 C 
ATOM     22  C   UNL     1       1.178   4.603 -10.141  0.00  0.00    -0.049 C 
ENDBRANCH   1  22
TORSDOF 1
ENDMDL
MODEL 9
REMARK VINA RESULT:      -7.0      2.672      7.165
REMARK  Name = 
REMARK  1 active torsions:
REMARK  status: ('A' for Active; 'I' for Inactive)
REMARK    1  A    between atoms: C_2  and  C_3
REMARK                            x       y       z     vdW  Elec       q    Type
REMARK                         _______ _______ _______ _____ _____    ______ ____
ROOT
ATOM      1  C   UNL     1       1.531   5.887  -7.540  0.00  0.00    +0.180 C 
ATOM      2  C   UNL     1       1.185   5.457  -6.165  0.00  0.00    +0.037 C 
ATOM      3  C   UNL     1      -0.275   6.205  -6.140  0.00  0.00    +0.003 C 
ATOM      4  C   UNL     1      -0.851   5.185  -4.896  0.00  0.00    +0.001 C 
ATOM      5  C   UNL     1      -0.206   6.217  -3.722  0.00  0.00    +0.004 C 
ATOM      6  C   UNL     1       1.243   5.501  -3.773  0.00  0.00    +0.000 C 
ATOM      7  C   UNL     1      -0.759   5.174  -2.479  0.00  0.00    +0.019 C 
ATOM      8  C   UNL     1      -2.210   5.892  -2.478  0.00  0.00    -0.042 C 
ATOM      9  C   UNL     1      -2.674   6.334  -1.344  0.00  0.00    +0.029 C 
ATOM     10  C   UNL     1      -1.939   7.531  -0.875  0.00  0.00    +0.173 C 
ATOM     11  C   UNL     1      -0.592   7.521  -1.547  0.00  0.00    +0.069 C 
ATOM     12  O   UNL     1      -2.023   7.917   0.330  0.00  0.00    -0.291 OA
ATOM     13  C   UNL     1      -3.012   5.418  -3.629  0.00  0.00    +0.022 C 
ATOM     14  C   UNL     1      -0.097   6.134  -1.309  0.00  0.00    +0.012 C 
ATOM     15  C   UNL     1      -2.284   5.940  -4.864  0.00  0.00    +0.004 C 
ATOM     16  C   UNL     1      -0.792   5.190  -7.324  0.00  0.00    +0.004 C 
ATOM     17  C   UNL     1       0.926   3.993  -6.150  0.00  0.00    +0.003 C 
ATOM     18  C   UNL     1       1.932   6.019  -5.036  0.00  0.00    +0.003 C 
ATOM     19  C   UNL     1       0.256   5.636  -8.340  0.00  0.00    +0.043 C 
ATOM     20  O   UNL     1       2.496   5.039  -8.105  0.00  0.00    -0.212 OA
ENDROOT
BRANCH   1  22
ATOM     21  C   UNL     1       2.276   8.261  -7.798  0.00  0.00    -0.012 C 
ATOM     22  C   UNL     1       1.946   7.298  -7.629  0.00  0.00    -0.049 C 
ENDBRANCH   1  22
TORSDOF 1
ENDMDL
