MODEL 1
REMARK VINA RESULT:      -9.7      0.000      0.000
REMARK  Name = 
REMARK  5 active torsions:
REMARK  status: ('A' for Active; 'I' for Inactive)
REMARK    1  A    between atoms: C_6  and  C_7
REMARK    2  A    between atoms: C_7  and  N_8
REMARK    3  A    between atoms: N_11  and  C_12
REMARK    4  A    between atoms: C_12  and  C_13
REMARK    5  A    between atoms: C_12  and  C_19
REMARK                            x       y       z     vdW  Elec       q    Type
REMARK                         _______ _______ _______ _____ _____    ______ ____
ROOT
ATOM      1  N   UNL     1       4.050   4.682  -9.760  0.00  0.00    -0.267 NA
ATOM      2  C   UNL     1       2.657   4.804  -9.324  0.00  0.00    +0.090 C 
ATOM      3  C   UNL     1       2.542   6.286  -8.971  0.00  0.00    +0.090 C 
ATOM      4  N   UNL     1       3.110   6.436  -7.629  0.00  0.00    -0.264 NA
ATOM      5  C   UNL     1       4.490   6.099  -7.783  0.00  0.00    +0.090 C 
ATOM      6  C   UNL     1       4.802   4.859  -8.523  0.00  0.00    +0.090 C 
ENDROOT
BRANCH   1   7
ATOM      7  C   UNL     1       4.260   5.812 -10.666  0.00  0.00    +0.099 C 
BRANCH   7  11
ATOM      8  C   UNL     1       8.840   5.851 -12.136  0.00  0.00    +0.031 C 
ATOM      9  C   UNL     1       7.571   5.741 -12.403  0.00  0.00    -0.022 A 
ATOM     10  C   UNL     1       6.611   5.568 -11.422  0.00  0.00    -0.007 A 
ATOM     11  C   UNL     1       5.261   5.472 -11.721  0.00  0.00    -0.006 A 
ATOM     12  C   UNL     1       4.848   5.518 -13.034  0.00  0.00    -0.003 A 
ATOM     13  C   UNL     1       5.792   5.656 -14.042  0.00  0.00    -0.001 A 
ATOM     14  C   UNL     1       7.139   5.743 -13.718  0.00  0.00    -0.004 A 
ENDBRANCH   7  11
ENDBRANCH   1   7
BRANCH   4  15
ATOM     15  C   UNL     1       2.431   5.263  -6.806  0.00  0.00    +0.103 C 
BRANCH  15  16
ATOM     16  C   UNL     1       0.996   6.004  -6.643  0.00  0.00    -0.004 A 
ATOM     17  C   UNL     1       0.761   6.799  -5.590  0.00  0.00    -0.002 A 
ATOM     18  C   UNL     1      -0.551   7.157  -5.302  0.00  0.00    +0.011 A 
ATOM     19  C   UNL     1      -1.507   6.163  -5.470  0.00  0.00    +0.058 A 
ATOM     20 CL   UNL     1      -2.742   5.817  -4.283  0.00  0.00    -0.082 Cl
ATOM     21  C   UNL     1      -1.379   5.455  -6.659  0.00  0.00    +0.011 A 
ATOM     22  C   UNL     1      -0.065   5.192  -7.038  0.00  0.00    -0.002 A 
ENDBRANCH  15  16
BRANCH  15  23
ATOM     23  C   UNL     1       2.962   5.813  -5.372  0.00  0.00    -0.004 A 
ATOM     24  C   UNL     1       3.767   6.941  -5.446  0.00  0.00    -0.003 A 
ATOM     25  C   UNL     1       4.418   7.290  -4.270  0.00  0.00    -0.000 A 
ATOM     26  C   UNL     1       4.583   6.345  -3.264  0.00  0.00    -0.000 A 
ATOM     27  C   UNL     1       4.376   5.007  -3.580  0.00  0.00    -0.000 A 
ATOM     28  C   UNL     1       3.644   4.770  -4.740  0.00  0.00    -0.003 A 
ENDBRANCH  15  23
ENDBRANCH   4  15
TORSDOF 5
ENDMDL
MODEL 2
REMARK VINA RESULT:      -9.5      1.830      2.144
REMARK  Name = 
REMARK  5 active torsions:
REMARK  status: ('A' for Active; 'I' for Inactive)
REMARK    1  A    between atoms: C_6  and  C_7
REMARK    2  A    between atoms: C_7  and  N_8
REMARK    3  A    between atoms: N_11  and  C_12
REMARK    4  A    between atoms: C_12  and  C_13
REMARK    5  A    between atoms: C_12  and  C_19
REMARK                            x       y       z     vdW  Elec       q    Type
REMARK                         _______ _______ _______ _____ _____    ______ ____
ROOT
ATOM      1  N   UNL     1       3.375   5.514  -8.397  0.00  0.00    -0.267 NA
ATOM      2  C   UNL     1       1.947   5.471  -8.075  0.00  0.00    +0.090 C 
ATOM      3  C   UNL     1       1.632   6.928  -7.743  0.00  0.00    +0.090 C 
ATOM      4  N   UNL     1       2.069   7.139  -6.360  0.00  0.00    -0.264 NA
ATOM      5  C   UNL     1       3.486   6.966  -6.401  0.00  0.00    +0.090 C 
ATOM      6  C   UNL     1       3.999   5.773  -7.105  0.00  0.00    +0.090 C 
ENDROOT
BRANCH   1   7
ATOM      7  C   UNL     1       3.524   6.663  -9.291  0.00  0.00    +0.099 C 
BRANCH   7  11
ATOM      8  C   UNL     1       8.075   5.128  -9.543  0.00  0.00    +0.031 C 
ATOM      9  C   UNL     1       7.124   5.908  -9.966  0.00  0.00    -0.022 A 
ATOM     10  C   UNL     1       5.796   5.723  -9.626  0.00  0.00    -0.007 A 
ATOM     11  C   UNL     1       4.796   6.574 -10.069  0.00  0.00    -0.006 A 
ATOM     12  C   UNL     1       5.113   7.626 -10.899  0.00  0.00    -0.003 A 
ATOM     13  C   UNL     1       6.433   7.816 -11.286  0.00  0.00    -0.001 A 
ATOM     14  C   UNL     1       7.416   6.945 -10.835  0.00  0.00    -0.004 A 
ENDBRANCH   7  11
ENDBRANCH   1   7
BRANCH   4  15
ATOM     15  C   UNL     1       1.467   5.892  -5.587  0.00  0.00    +0.103 C 
BRANCH  15  16
ATOM     16  C   UNL     1      -0.063   6.434  -5.594  0.00  0.00    -0.004 A 
ATOM     17  C   UNL     1      -0.413   7.484  -4.838  0.00  0.00    -0.002 A 
ATOM     18  C   UNL     1      -1.763   7.724  -4.611  0.00  0.00    +0.011 A 
ATOM     19  C   UNL     1      -2.559   6.603  -4.405  0.00  0.00    +0.058 A 
ATOM     20 CL   UNL     1      -3.723   6.486  -3.108  0.00  0.00    -0.082 Cl
ATOM     21  C   UNL     1      -2.328   5.576  -5.313  0.00  0.00    +0.011 A 
ATOM     22  C   UNL     1      -0.990   5.396  -5.655  0.00  0.00    -0.002 A 
ENDBRANCH  15  16
BRANCH  15  23
ATOM     23  C   UNL     1       1.761   6.521  -4.117  0.00  0.00    -0.004 A 
ATOM     24  C   UNL     1       3.007   7.117  -3.982  0.00  0.00    -0.003 A 
ATOM     25  C   UNL     1       3.372   7.451  -2.683  0.00  0.00    -0.000 A 
ATOM     26  C   UNL     1       2.737   6.841  -1.608  0.00  0.00    -0.000 A 
ATOM     27  C   UNL     1       1.984   5.698  -1.852  0.00  0.00    -0.000 A 
ATOM     28  C   UNL     1       1.606   5.500  -3.176  0.00  0.00    -0.003 A 
ENDBRANCH  15  23
ENDBRANCH   4  15
TORSDOF 5
ENDMDL
MODEL 3
REMARK VINA RESULT:      -9.5      1.627      3.738
REMARK  Name = 
REMARK  5 active torsions:
REMARK  status: ('A' for Active; 'I' for Inactive)
REMARK    1  A    between atoms: C_6  and  C_7
REMARK    2  A    between atoms: C_7  and  N_8
REMARK    3  A    between atoms: N_11  and  C_12
REMARK    4  A    between atoms: C_12  and  C_13
REMARK    5  A    between atoms: C_12  and  C_19
REMARK                            x       y       z     vdW  Elec       q    Type
REMARK                         _______ _______ _______ _____ _____    ______ ____
ROOT
ATOM      1  N   UNL     1       3.790   6.334 -10.783  0.00  0.00    -0.267 NA
ATOM      2  C   UNL     1       4.335   6.350  -9.423  0.00  0.00    +0.090 C 
ATOM      3  C   UNL     1       3.984   4.958  -8.903  0.00  0.00    +0.090 C 
ATOM      4  N   UNL     1       2.583   5.017  -8.481  0.00  0.00    -0.264 NA
ATOM      5  C   UNL     1       1.854   5.262  -9.684  0.00  0.00    +0.090 C 
ATOM      6  C   UNL     1       2.349   6.340 -10.563  0.00  0.00    +0.090 C 
ENDROOT
BRANCH   1   7
ATOM      7  C   UNL     1       4.228   5.057 -11.348  0.00  0.00    +0.099 C 
BRANCH   7  11
ATOM      8  C   UNL     1       8.826   5.963 -12.427  0.00  0.00    +0.031 C 
ATOM      9  C   UNL     1       7.574   5.919 -12.778  0.00  0.00    -0.022 A 
ATOM     10  C   UNL     1       6.606   5.286 -12.020  0.00  0.00    -0.007 A 
ATOM     11  C   UNL     1       5.272   5.265 -12.396  0.00  0.00    -0.006 A 
ATOM     12  C   UNL     1       4.886   5.864 -13.574  0.00  0.00    -0.003 A 
ATOM     13  C   UNL     1       5.841   6.477 -14.373  0.00  0.00    -0.001 A 
ATOM     14  C   UNL     1       7.172   6.479 -13.978  0.00  0.00    -0.004 A 
ENDBRANCH   7  11
ENDBRANCH   1   7
BRANCH   4  15
ATOM     15  C   UNL     1       2.513   6.343  -7.614  0.00  0.00    +0.103 C 
BRANCH  15  16
ATOM     16  C   UNL     1       3.497   5.807  -6.439  0.00  0.00    -0.004 A 
ATOM     17  C   UNL     1       3.128   4.779  -5.662  0.00  0.00    -0.002 A 
ATOM     18  C   UNL     1       3.823   4.550  -4.481  0.00  0.00    +0.011 A 
ATOM     19  C   UNL     1       4.198   5.680  -3.763  0.00  0.00    +0.058 A 
ATOM     20 CL   UNL     1       3.962   5.835  -2.038  0.00  0.00    -0.082 Cl
ATOM     21  C   UNL     1       4.759   6.682  -4.545  0.00  0.00    +0.011 A 
ATOM     22  C   UNL     1       4.160   6.848  -5.791  0.00  0.00    -0.002 A 
ENDBRANCH  15  16
BRANCH  15  23
ATOM     23  C   UNL     1       1.179   5.878  -6.809  0.00  0.00    -0.004 A 
ATOM     24  C   UNL     1       0.118   5.496  -7.618  0.00  0.00    -0.003 A 
ATOM     25  C   UNL     1      -1.097   5.320  -6.969  0.00  0.00    -0.000 A 
ATOM     26  C   UNL     1      -1.306   5.902  -5.723  0.00  0.00    -0.000 A 
ATOM     27  C   UNL     1      -0.424   6.892  -5.305  0.00  0.00    -0.000 A 
ATOM     28  C   UNL     1       0.797   6.930  -5.972  0.00  0.00    -0.003 A 
ENDBRANCH  15  23
ENDBRANCH   4  15
TORSDOF 5
ENDMDL
MODEL 4
REMARK VINA RESULT:      -9.5      2.446      8.008
REMARK  Name = 
REMARK  5 active torsions:
REMARK  status: ('A' for Active; 'I' for Inactive)
REMARK    1  A    between atoms: C_6  and  C_7
REMARK    2  A    between atoms: C_7  and  N_8
REMARK    3  A    between atoms: N_11  and  C_12
REMARK    4  A    between atoms: C_12  and  C_13
REMARK    5  A    between atoms: C_12  and  C_19
REMARK                            x       y       z     vdW  Elec       q    Type
REMARK                         _______ _______ _______ _____ _____    ______ ____
ROOT
ATOM      1  N   UNL     1      -0.446   5.618  -6.272  0.00  0.00    -0.267 NA
ATOM      2  C   UNL     1       0.728   5.341  -5.441  0.00  0.00    +0.090 C 
ATOM      3  C   UNL     1       1.468   6.677  -5.447  0.00  0.00    +0.090 C 
ATOM      4  N   UNL     1       2.213   6.731  -6.707  0.00  0.00    -0.264 NA
ATOM      5  C   UNL     1       1.206   6.752  -7.719  0.00  0.00    +0.090 C 
ATOM      6  C   UNL     1       0.120   5.757  -7.609  0.00  0.00    +0.090 C 
ENDROOT
BRANCH   1   7
ATOM      7  C   UNL     1      -0.957   6.899  -5.785  0.00  0.00    +0.099 C 
BRANCH   7  11
ATOM      8  C   UNL     1      -1.974   7.537  -1.127  0.00  0.00    +0.031 C 
ATOM      9  C   UNL     1      -2.189   6.923  -2.253  0.00  0.00    -0.022 A 
ATOM     10  C   UNL     1      -1.688   7.375  -3.460  0.00  0.00    -0.007 A 
ATOM     11  C   UNL     1      -1.909   6.698  -4.650  0.00  0.00    -0.006 A 
ATOM     12  C   UNL     1      -2.674   5.553  -4.652  0.00  0.00    -0.003 A 
ATOM     13  C   UNL     1      -3.220   5.095  -3.460  0.00  0.00    -0.001 A 
ATOM     14  C   UNL     1      -2.990   5.794  -2.283  0.00  0.00    -0.004 A 
ENDBRANCH   7  11
ENDBRANCH   1   7
BRANCH   4  15
ATOM     15  C   UNL     1       2.920   5.314  -6.780  0.00  0.00    +0.103 C 
BRANCH  15  16
ATOM     16  C   UNL     1       4.106   5.683  -5.734  0.00  0.00    -0.004 A 
ATOM     17  C   UNL     1       4.318   4.919  -4.654  0.00  0.00    -0.002 A 
ATOM     18  C   UNL     1       5.104   5.421  -3.623  0.00  0.00    +0.011 A 
ATOM     19  C   UNL     1       4.935   6.769  -3.325  0.00  0.00    +0.058 A 
ATOM     20 CL   UNL     1       4.753   7.368  -1.694  0.00  0.00    -0.082 Cl
ATOM     21  C   UNL     1       4.904   7.592  -4.444  0.00  0.00    +0.011 A 
ATOM     22  C   UNL     1       4.227   7.057  -5.538  0.00  0.00    -0.002 A 
ENDBRANCH  15  16
BRANCH  15  23
ATOM     23  C   UNL     1       3.830   5.711  -8.067  0.00  0.00    -0.004 A 
ATOM     24  C   UNL     1       3.385   5.190  -9.273  0.00  0.00    -0.003 A 
ATOM     25  C   UNL     1       4.265   5.318 -10.341  0.00  0.00    -0.000 A 
ATOM     26  C   UNL     1       5.615   5.544 -10.101  0.00  0.00    -0.000 A 
ATOM     27  C   UNL     1       6.100   5.325  -8.816  0.00  0.00    -0.000 A 
ATOM     28  C   UNL     1       5.139   5.292  -7.810  0.00  0.00    -0.003 A 
ENDBRANCH  15  23
ENDBRANCH   4  15
TORSDOF 5
ENDMDL
MODEL 5
REMARK VINA RESULT:      -9.4      2.184      4.196
REMARK  Name = 
REMARK  5 active torsions:
REMARK  status: ('A' for Active; 'I' for Inactive)
REMARK    1  A    between atoms: C_6  and  C_7
REMARK    2  A    between atoms: C_7  and  N_8
REMARK    3  A    between atoms: N_11  and  C_12
REMARK    4  A    between atoms: C_12  and  C_13
REMARK    5  A    between atoms: C_12  and  C_19
REMARK                            x       y       z     vdW  Elec       q    Type
REMARK                         _______ _______ _______ _____ _____    ______ ____
ROOT
ATOM      1  N   UNL     1       2.876   7.002  -8.973  0.00  0.00    -0.267 NA
ATOM      2  C   UNL     1       3.254   7.026  -7.557  0.00  0.00    +0.090 C 
ATOM      3  C   UNL     1       2.939   5.604  -7.100  0.00  0.00    +0.090 C 
ATOM      4  N   UNL     1       1.496   5.563  -6.847  0.00  0.00    -0.264 NA
ATOM      5  C   UNL     1       0.900   5.783  -8.125  0.00  0.00    +0.090 C 
ATOM      6  C   UNL     1       1.422   6.910  -8.926  0.00  0.00    +0.090 C 
ENDROOT
BRANCH   1   7
ATOM      7  C   UNL     1       3.463   5.768  -9.496  0.00  0.00    +0.099 C 
BRANCH   7  11
ATOM      8  C   UNL     1       8.254   5.344  -9.501  0.00  0.00    +0.031 C 
ATOM      9  C   UNL     1       7.173   5.920  -9.941  0.00  0.00    -0.022 A 
ATOM     10  C   UNL     1       5.908   5.406  -9.719  0.00  0.00    -0.007 A 
ATOM     11  C   UNL     1       4.765   6.041 -10.177  0.00  0.00    -0.006 A 
ATOM     12  C   UNL     1       4.875   7.207 -10.903  0.00  0.00    -0.003 A 
ATOM     13  C   UNL     1       6.134   7.727 -11.170  0.00  0.00    -0.001 A 
ATOM     14  C   UNL     1       7.265   7.069 -10.707  0.00  0.00    -0.004 A 
ENDBRANCH   7  11
ENDBRANCH   1   7
BRANCH   4  15
ATOM     15  C   UNL     1       1.235   6.863  -5.978  0.00  0.00    +0.103 C 
BRANCH  15  16
ATOM     16  C   UNL     1       1.963   6.301  -4.641  0.00  0.00    -0.004 A 
ATOM     17  C   UNL     1       1.298   5.505  -3.792  0.00  0.00    -0.002 A 
ATOM     18  C   UNL     1       1.817   5.303  -2.518  0.00  0.00    +0.011 A 
ATOM     19  C   UNL     1       2.387   6.414  -1.906  0.00  0.00    +0.058 A 
ATOM     20 CL   UNL     1       2.049   6.869  -0.253  0.00  0.00    -0.082 Cl
ATOM     21  C   UNL     1       3.232   7.141  -2.735  0.00  0.00    +0.011 A 
ATOM     22  C   UNL     1       2.796   7.252  -4.053  0.00  0.00    -0.002 A 
ENDBRANCH  15  16
BRANCH  15  23
ATOM     23  C   UNL     1      -0.230   6.369  -5.477  0.00  0.00    -0.004 A 
ATOM     24  C   UNL     1      -0.991   5.735  -6.450  0.00  0.00    -0.003 A 
ATOM     25  C   UNL     1      -2.322   5.514  -6.119  0.00  0.00    -0.000 A 
ATOM     26  C   UNL     1      -2.913   6.254  -5.101  0.00  0.00    -0.000 A 
ATOM     27  C   UNL     1      -2.261   7.401  -4.659  0.00  0.00    -0.000 A 
ATOM     28  C   UNL     1      -0.910   7.484  -4.979  0.00  0.00    -0.003 A 
ENDBRANCH  15  23
ENDBRANCH   4  15
TORSDOF 5
ENDMDL
MODEL 6
REMARK VINA RESULT:      -9.3      3.392      8.568
REMARK  Name = 
REMARK  5 active torsions:
REMARK  status: ('A' for Active; 'I' for Inactive)
REMARK    1  A    between atoms: C_6  and  C_7
REMARK    2  A    between atoms: C_7  and  N_8
REMARK    3  A    between atoms: N_11  and  C_12
REMARK    4  A    between atoms: C_12  and  C_13
REMARK    5  A    between atoms: C_12  and  C_19
REMARK                            x       y       z     vdW  Elec       q    Type
REMARK                         _______ _______ _______ _____ _____    ______ ____
ROOT
ATOM      1  N   UNL     1       1.400   5.433  -7.331  0.00  0.00    -0.267 NA
ATOM      2  C   UNL     1       2.854   5.470  -7.512  0.00  0.00    +0.090 C 
ATOM      3  C   UNL     1       3.101   6.907  -7.964  0.00  0.00    +0.090 C 
ATOM      4  N   UNL     1       2.793   6.948  -9.395  0.00  0.00    -0.264 NA
ATOM      5  C   UNL     1       1.394   6.670  -9.470  0.00  0.00    +0.090 C 
ATOM      6  C   UNL     1       0.894   5.516  -8.696  0.00  0.00    +0.090 C 
ENDROOT
BRANCH   1   7
ATOM      7  C   UNL     1       1.085   6.649  -6.581  0.00  0.00    +0.099 C 
BRANCH   7  11
ATOM      8  C   UNL     1      -2.083   7.588  -3.085  0.00  0.00    +0.031 C 
ATOM      9  C   UNL     1      -1.774   6.978  -4.192  0.00  0.00    -0.022 A 
ATOM     10  C   UNL     1      -0.660   7.307  -4.943  0.00  0.00    -0.007 A 
ATOM     11  C   UNL     1      -0.333   6.634  -6.110  0.00  0.00    -0.006 A 
ATOM     12  C   UNL     1      -1.148   5.622  -6.566  0.00  0.00    -0.003 A 
ATOM     13  C   UNL     1      -2.292   5.292  -5.850  0.00  0.00    -0.001 A 
ATOM     14  C   UNL     1      -2.602   5.986  -4.688  0.00  0.00    -0.004 A 
ENDBRANCH   7  11
ENDBRANCH   1   7
BRANCH   4  15
ATOM     15  C   UNL     1       3.552   5.682  -9.974  0.00  0.00    +0.103 C 
BRANCH  15  16
ATOM     16  C   UNL     1       5.029   6.354  -9.921  0.00  0.00    -0.004 A 
ATOM     17  C   UNL     1       5.410   7.228 -10.863  0.00  0.00    -0.002 A 
ATOM     18  C   UNL     1       6.759   7.536 -10.983  0.00  0.00    +0.011 A 
ATOM     19  C   UNL     1       7.647   6.479 -10.816  0.00  0.00    +0.058 A 
ATOM     20 CL   UNL     1       8.982   6.175 -11.902  0.00  0.00    -0.082 Cl
ATOM     21  C   UNL     1       7.362   5.674  -9.720  0.00  0.00    +0.011 A 
ATOM     22  C   UNL     1       6.005   5.452  -9.502  0.00  0.00    -0.002 A 
ENDBRANCH  15  16
BRANCH  15  23
ATOM     23  C   UNL     1       3.329   6.118 -11.524  0.00  0.00    -0.004 A 
ATOM     24  C   UNL     1       2.004   6.136 -11.935  0.00  0.00    -0.003 A 
ATOM     25  C   UNL     1       1.803   6.277 -13.303  0.00  0.00    -0.000 A 
ATOM     26  C   UNL     1       2.834   5.980 -14.187  0.00  0.00    -0.000 A 
ATOM     27  C   UNL     1       3.923   5.259 -13.708  0.00  0.00    -0.000 A 
ATOM     28  C   UNL     1       4.074   5.248 -12.325  0.00  0.00    -0.003 A 
ENDBRANCH  15  23
ENDBRANCH   4  15
TORSDOF 5
ENDMDL
MODEL 7
REMARK VINA RESULT:      -9.1      3.106      8.157
REMARK  Name = 
REMARK  5 active torsions:
REMARK  status: ('A' for Active; 'I' for Inactive)
REMARK    1  A    between atoms: C_6  and  C_7
REMARK    2  A    between atoms: C_7  and  N_8
REMARK    3  A    between atoms: N_11  and  C_12
REMARK    4  A    between atoms: C_12  and  C_13
REMARK    5  A    between atoms: C_12  and  C_19
REMARK                            x       y       z     vdW  Elec       q    Type
REMARK                         _______ _______ _______ _____ _____    ______ ____
ROOT
ATOM      1  N   UNL     1       2.544   5.168  -4.891  0.00  0.00    -0.267 NA
ATOM      2  C   UNL     1       3.686   5.327  -5.794  0.00  0.00    +0.090 C 
ATOM      3  C   UNL     1       3.449   6.710  -6.396  0.00  0.00    +0.090 C 
ATOM      4  N   UNL     1       2.463   6.531  -7.465  0.00  0.00    -0.264 NA
ATOM      5  C   UNL     1       1.277   6.106  -6.794  0.00  0.00    +0.090 C 
ATOM      6  C   UNL     1       1.417   5.019  -5.804  0.00  0.00    +0.090 C 
ENDROOT
BRANCH   1   7
ATOM      7  C   UNL     1       2.462   6.433  -4.161  0.00  0.00    +0.099 C 
BRANCH   7  11
ATOM      8  C   UNL     1       4.143   8.371  -0.092  0.00  0.00    +0.031 C 
ATOM      9  C   UNL     1       3.889   7.324  -0.820  0.00  0.00    -0.022 A 
ATOM     10  C   UNL     1       3.096   7.372  -1.953  0.00  0.00    -0.007 A 
ATOM     11  C   UNL     1       2.852   6.251  -2.730  0.00  0.00    -0.006 A 
ATOM     12  C   UNL     1       3.384   5.035  -2.361  0.00  0.00    -0.003 A 
ATOM     13  C   UNL     1       4.155   4.949  -1.210  0.00  0.00    -0.001 A 
ATOM     14  C   UNL     1       4.380   6.085  -0.444  0.00  0.00    -0.004 A 
ENDBRANCH   7  11
ENDBRANCH   1   7
BRANCH   4  15
ATOM     15  C   UNL     1       3.016   5.284  -8.273  0.00  0.00    +0.103 C 
BRANCH  15  16
ATOM     16  C   UNL     1       4.299   6.062  -8.894  0.00  0.00    -0.004 A 
ATOM     17  C   UNL     1       4.193   6.724 -10.055  0.00  0.00    -0.002 A 
ATOM     18  C   UNL     1       5.354   7.101 -10.719  0.00  0.00    +0.011 A 
ATOM     19  C   UNL     1       6.396   6.181 -10.699  0.00  0.00    +0.058 A 
ATOM     20 CL   UNL     1       7.307   5.741 -12.124  0.00  0.00    -0.082 Cl
ATOM     21  C   UNL     1       6.634   5.629  -9.446  0.00  0.00    +0.011 A 
ATOM     22  C   UNL     1       5.486   5.358  -8.706  0.00  0.00    -0.002 A 
ENDBRANCH  15  16
BRANCH  15  23
ATOM     23  C   UNL     1       2.104   5.589  -9.584  0.00  0.00    -0.004 A 
ATOM     24  C   UNL     1       1.267   6.688  -9.464  0.00  0.00    -0.003 A 
ATOM     25  C   UNL     1       0.317   6.830 -10.468  0.00  0.00    -0.000 A 
ATOM     26  C   UNL     1      -0.028   5.736 -11.253  0.00  0.00    -0.000 A 
ATOM     27  C   UNL     1       0.345   4.470 -10.815  0.00  0.00    -0.000 A 
ATOM     28  C   UNL     1       1.360   4.439  -9.863  0.00  0.00    -0.003 A 
ENDBRANCH  15  23
ENDBRANCH   4  15
TORSDOF 5
ENDMDL
MODEL 8
REMARK VINA RESULT:      -8.9      3.632      8.027
REMARK  Name = 
REMARK  5 active torsions:
REMARK  status: ('A' for Active; 'I' for Inactive)
REMARK    1  A    between atoms: C_6  and  C_7
REMARK    2  A    between atoms: C_7  and  N_8
REMARK    3  A    between atoms: N_11  and  C_12
REMARK    4  A    between atoms: C_12  and  C_13
REMARK    5  A    between atoms: C_12  and  C_19
REMARK                            x       y       z     vdW  Elec       q    Type
REMARK                         _______ _______ _______ _____ _____    ______ ____
ROOT
ATOM      1  N   UNL     1       3.550   5.332  -2.946  0.00  0.00    -0.267 NA
ATOM      2  C   UNL     1       3.647   5.096  -4.389  0.00  0.00    +0.090 C 
ATOM      3  C   UNL     1       3.468   6.495  -4.973  0.00  0.00    +0.090 C 
ATOM      4  N   UNL     1       2.027   6.757  -4.982  0.00  0.00    -0.264 NA
ATOM      5  C   UNL     1       1.655   6.777  -3.603  0.00  0.00    +0.090 C 
ATOM      6  C   UNL     1       2.143   5.668  -2.759  0.00  0.00    +0.090 C 
ENDROOT
BRANCH   1   7
ATOM      7  C   UNL     1       4.403   6.495  -2.698  0.00  0.00    +0.099 C 
BRANCH   7  11
ATOM      8  C   UNL     1       3.530  10.440  -0.089  0.00  0.00    +0.031 C 
ATOM      9  C   UNL     1       3.878   9.189  -0.157  0.00  0.00    -0.022 A 
ATOM     10  C   UNL     1       3.715   8.427  -1.300  0.00  0.00    -0.007 A 
ATOM     11  C   UNL     1       4.108   7.100  -1.364  0.00  0.00    -0.006 A 
ATOM     12  C   UNL     1       4.654   6.495  -0.253  0.00  0.00    -0.003 A 
ATOM     13  C   UNL     1       4.797   7.225   0.919  0.00  0.00    -0.001 A 
ATOM     14  C   UNL     1       4.389   8.551   0.960  0.00  0.00    -0.004 A 
ENDBRANCH   7  11
ENDBRANCH   1   7
BRANCH   4  15
ATOM     15  C   UNL     1       1.415   5.437  -5.612  0.00  0.00    +0.103 C 
BRANCH  15  16
ATOM     16  C   UNL     1       1.963   5.718  -7.114  0.00  0.00    -0.004 A 
ATOM     17  C   UNL     1       1.478   6.741  -7.832  0.00  0.00    -0.002 A 
ATOM     18  C   UNL     1       1.716   6.769  -9.201  0.00  0.00    +0.011 A 
ATOM     19  C   UNL     1       1.647   5.547  -9.860  0.00  0.00    +0.058 A 
ATOM     20 CL   UNL     1       0.777   5.321 -11.359  0.00  0.00    -0.082 Cl
ATOM     21  C   UNL     1       2.314   4.518  -9.208  0.00  0.00    +0.011 A 
ATOM     22  C   UNL     1       2.196   4.539  -7.820  0.00  0.00    -0.002 A 
ENDBRANCH  15  16
BRANCH  15  23
ATOM     23  C   UNL     1      -0.024   6.124  -5.930  0.00  0.00    -0.004 A 
ATOM     24  C   UNL     1      -0.525   6.918  -4.908  0.00  0.00    -0.003 A 
ATOM     25  C   UNL     1      -1.846   7.323  -5.058  0.00  0.00    -0.000 A 
ATOM     26  C   UNL     1      -2.689   6.630  -5.920  0.00  0.00    -0.000 A 
ATOM     27  C   UNL     1      -2.285   5.375  -6.364  0.00  0.00    -0.000 A 
ATOM     28  C   UNL     1      -0.927   5.102  -6.239  0.00  0.00    -0.003 A 
ENDBRANCH  15  23
ENDBRANCH   4  15
TORSDOF 5
ENDMDL
MODEL 9
REMARK VINA RESULT:      -8.6      2.593      4.917
REMARK  Name = 
REMARK  5 active torsions:
REMARK  status: ('A' for Active; 'I' for Inactive)
REMARK    1  A    between atoms: C_6  and  C_7
REMARK    2  A    between atoms: C_7  and  N_8
REMARK    3  A    between atoms: N_11  and  C_12
REMARK    4  A    between atoms: C_12  and  C_13
REMARK    5  A    between atoms: C_12  and  C_19
REMARK                            x       y       z     vdW  Elec       q    Type
REMARK                         _______ _______ _______ _____ _____    ______ ____
ROOT
ATOM      1  N   UNL     1       2.089   5.901  -7.439  0.00  0.00    -0.267 NA
ATOM      2  C   UNL     1       2.525   6.471  -6.162  0.00  0.00    +0.090 C 
ATOM      3  C   UNL     1       2.582   5.249  -5.249  0.00  0.00    +0.090 C 
ATOM      4  N   UNL     1       1.207   4.995  -4.813  0.00  0.00    -0.264 NA
ATOM      5  C   UNL     1       0.508   4.650  -6.010  0.00  0.00    +0.090 C 
ATOM      6  C   UNL     1       0.703   5.529  -7.181  0.00  0.00    +0.090 C 
ENDROOT
BRANCH   1   7
ATOM      7  C   UNL     1       2.923   4.713  -7.624  0.00  0.00    +0.099 C 
BRANCH   7  11
ATOM      8  C   UNL     1       7.289   5.815  -9.316  0.00  0.00    +0.031 C 
ATOM      9  C   UNL     1       6.015   5.643  -9.513  0.00  0.00    -0.022 A 
ATOM     10  C   UNL     1       5.189   5.033  -8.586  0.00  0.00    -0.007 A 
ATOM     11  C   UNL     1       3.829   4.875  -8.802  0.00  0.00    -0.006 A 
ATOM     12  C   UNL     1       3.271   5.307  -9.984  0.00  0.00    -0.003 A 
ATOM     13  C   UNL     1       4.082   5.892 -10.948  0.00  0.00    -0.001 A 
ATOM     14  C   UNL     1       5.442   6.032 -10.711  0.00  0.00    -0.004 A 
ENDBRANCH   7  11
ENDBRANCH   1   7
BRANCH   4  15
ATOM     15  C   UNL     1       0.690   6.425  -4.366  0.00  0.00    +0.103 C 
BRANCH  15  16
ATOM     16  C   UNL     1       1.379   6.383  -2.897  0.00  0.00    -0.004 A 
ATOM     17  C   UNL     1       2.554   6.991  -2.682  0.00  0.00    -0.002 A 
ATOM     18  C   UNL     1       3.271   6.676  -1.534  0.00  0.00    +0.011 A 
ATOM     19  C   UNL     1       3.262   5.339  -1.155  0.00  0.00    +0.058 A 
ATOM     20 CL   UNL     1       4.707   4.470  -0.695  0.00  0.00    -0.082 Cl
ATOM     21  C   UNL     1       2.004   4.751  -1.196  0.00  0.00    +0.011 A 
ATOM     22  C   UNL     1       1.214   5.148  -2.272  0.00  0.00    -0.002 A 
ENDBRANCH  15  16
BRANCH  15  23
ATOM     23  C   UNL     1      -0.725   5.859  -3.799  0.00  0.00    -0.004 A 
ATOM     24  C   UNL     1      -1.721   5.728  -4.756  0.00  0.00    -0.003 A 
ATOM     25  C   UNL     1      -2.995   5.472  -4.263  0.00  0.00    -0.000 A 
ATOM     26  C   UNL     1      -3.294   5.763  -2.937  0.00  0.00    -0.000 A 
ATOM     27  C   UNL     1      -2.421   6.584  -2.231  0.00  0.00    -0.000 A 
ATOM     28  C   UNL     1      -1.145   6.709  -2.773  0.00  0.00    -0.003 A 
ENDBRANCH  15  23
ENDBRANCH   4  15
TORSDOF 5
ENDMDL
