MODEL 1
REMARK VINA RESULT:      -7.9      0.000      0.000
REMARK  Name = 
REMARK  26 active torsions:
REMARK  status: ('A' for Active; 'I' for Inactive)
REMARK    1  A    between atoms: O_2  and  C_3
REMARK    2  A    between atoms: C_6  and  C_7
REMARK    3  A    between atoms: C_7  and  C_8
REMARK    4  A    between atoms: C_11  and  O_12
REMARK    5  A    between atoms: C_14  and  O_15
REMARK    6  A    between atoms: N_21  and  C_23
REMARK    7  A    between atoms: C_23  and  C_24
REMARK    8  A    between atoms: C_24  and  C_25
REMARK    9  A    between atoms: C_25  and  O_27
REMARK   10  A    between atoms: O_27  and  C_28
REMARK   11  A    between atoms: C_28  and  C_29
REMARK   12  A    between atoms: C_29  and  C_30
REMARK   13  A    between atoms: C_30  and  C_31
REMARK   14  A    between atoms: C_31  and  C_32
REMARK   15  A    between atoms: C_32  and  O_33
REMARK   16  A    between atoms: O_33  and  C_34
REMARK   17  A    between atoms: C_34  and  C_36
REMARK   18  A    between atoms: C_36  and  C_37
REMARK   19  A    between atoms: C_37  and  N_38
REMARK   20  A    between atoms: C_44  and  O_45
REMARK   21  A    between atoms: C_47  and  O_48
REMARK   22  A    between atoms: C_52  and  C_53
REMARK   23  A    between atoms: C_53  and  C_54
REMARK   24  A    between atoms: C_57  and  O_58
REMARK   25  A    between atoms: C_60  and  O_61
REMARK   26  A    between atoms: C_65  and  O_66
REMARK                            x       y       z     vdW  Elec       q    Type
REMARK                         _______ _______ _______ _____ _____    ______ ____
ROOT
ATOM      1  C   UNL     1      -2.100   6.858  -5.287  0.00  0.00    +0.008 C 
ENDROOT
BRANCH   1   2
ATOM      2  C   UNL     1      -2.617   6.478  -3.903  0.00  0.00    +0.048 C 
BRANCH   2   3
ATOM      3  C   UNL     1      -2.073   7.507  -2.967  0.00  0.00    +0.208 C 
BRANCH   3   4
ATOM      4  O   UNL     1      -2.274   7.191  -1.597  0.00  0.00    -0.448 OA
BRANCH   4   5
ATOM      5  C   UNL     1      -1.192   7.293  -0.717  0.00  0.00    +0.323 C 
ATOM      6  O   UNL     1      -1.127   8.404  -0.107  0.00  0.00    -0.250 OA
BRANCH   5   7
ATOM      7  C   UNL     1      -0.216   6.197  -0.496  0.00  0.00    +0.170 C 
BRANCH   7   8
ATOM      8  C   UNL     1       1.199   6.720  -0.295  0.00  0.00    +0.121 C 
BRANCH   8   9
ATOM      9  N   UNL     1       2.038   6.139  -1.316  0.00  0.00    +0.301 N 
ATOM     10  C   UNL     1       3.457   6.847  -1.122  0.00  0.00    +0.086 C 
ATOM     11  C   UNL     1       3.928   6.471  -2.636  0.00  0.00    +0.027 A 
ATOM     12  C   UNL     1       4.112   5.115  -2.822  0.00  0.00    -0.012 A 
ATOM     13  C   UNL     1       4.305   4.659  -4.101  0.00  0.00    +0.036 A 
ATOM     14  C   UNL     1       4.354   5.577  -5.143  0.00  0.00    +0.172 A 
ATOM     15  C   UNL     1       3.999   6.901  -4.908  0.00  0.00    +0.172 A 
ATOM     16  C   UNL     1       3.598   4.267  -1.712  0.00  0.00    +0.087 C 
ATOM     17  C   UNL     1       3.945   7.382  -3.603  0.00  0.00    +0.041 A 
ATOM     18  C   UNL     1       2.301   4.750  -1.148  0.00  0.00    +0.114 C 
ATOM     19  C   UNL     1       1.556   6.547  -2.589  0.00  0.00    +0.171 C 
BRANCH  14  20
ATOM     20  O   UNL     1       4.165   5.051  -6.424  0.00  0.00    -0.468 OA
ATOM     21  C   UNL     1       5.250   5.070  -7.322  0.00  0.00    +0.253 C 
ENDBRANCH  14  20
BRANCH  15  22
ATOM     22  O   UNL     1       3.340   7.593  -5.931  0.00  0.00    -0.468 OA
ATOM     23  C   UNL     1       2.024   7.281  -6.308  0.00  0.00    +0.253 C 
ENDBRANCH  15  22
BRANCH  10  24
ATOM     24  C   UNL     1       2.824   8.345  -1.510  0.00  0.00    +0.086 C 
BRANCH  24  25
ATOM     25  C   UNL     1       3.676   9.215  -0.635  0.00  0.00    -0.013 A 
ATOM     26  C   UNL     1       3.725  10.595  -0.803  0.00  0.00    +0.036 A 
ATOM     27  C   UNL     1       4.051  11.451   0.246  0.00  0.00    +0.172 A 
ATOM     28  C   UNL     1       3.775  10.967   1.520  0.00  0.00    +0.172 A 
ATOM     29  C   UNL     1       4.035   9.613   1.694  0.00  0.00    +0.040 A 
ATOM     30  C   UNL     1       4.174   8.781   0.588  0.00  0.00    -0.001 A 
BRANCH  28  31
ATOM     31  O   UNL     1       3.156  11.731   2.504  0.00  0.00    -0.468 OA
ATOM     32  C   UNL     1       2.243  11.137   3.405  0.00  0.00    +0.253 C 
ENDBRANCH  28  31
BRANCH  27  33
ATOM     33  O   UNL     1       3.989  12.840   0.083  0.00  0.00    -0.468 OA
ATOM     34  C   UNL     1       4.990  13.487  -0.677  0.00  0.00    +0.253 C 
ENDBRANCH  27  33
ENDBRANCH  24  25
ENDBRANCH  10  24
ENDBRANCH   8   9
ENDBRANCH   7   8
ENDBRANCH   5   7
ENDBRANCH   4   5
ENDBRANCH   3   4
ENDBRANCH   2   3
ENDBRANCH   1   2
BRANCH   1  35
ATOM     35  C   UNL     1      -2.284   5.752  -6.288  0.00  0.00    +0.048 C 
BRANCH  35  36
ATOM     36  C   UNL     1      -0.984   5.180  -6.795  0.00  0.00    +0.208 C 
BRANCH  36  37
ATOM     37  O   UNL     1      -0.658   5.588  -8.096  0.00  0.00    -0.448 OA
BRANCH  37  38
ATOM     38  C   UNL     1       0.185   4.852  -8.921  0.00  0.00    +0.323 C 
ATOM     39  O   UNL     1       1.162   4.297  -8.332  0.00  0.00    -0.250 OA
BRANCH  38  40
ATOM     40  C   UNL     1      -0.028   4.708 -10.384  0.00  0.00    +0.170 C 
BRANCH  40  41
ATOM     41  C   UNL     1       1.285   4.931 -11.127  0.00  0.00    +0.121 C 
BRANCH  41  43
ATOM     42  C   UNL     1       2.717   6.616 -12.191  0.00  0.00    +0.086 C 
ATOM     43  N   UNL     1       1.819   6.204 -10.944  0.00  0.00    +0.301 N 
ATOM     44  C   UNL     1       0.841   7.294 -10.947  0.00  0.00    +0.171 C 
ATOM     45  C   UNL     1       2.603   6.343  -9.777  0.00  0.00    +0.114 C 
ATOM     46  C   UNL     1       3.839   7.173  -9.890  0.00  0.00    +0.087 C 
ATOM     47  C   UNL     1       4.706   6.413 -10.849  0.00  0.00    -0.012 A 
ATOM     48  C   UNL     1       6.068   6.320 -10.730  0.00  0.00    +0.036 A 
ATOM     49  C   UNL     1       6.764   6.085 -11.910  0.00  0.00    +0.172 A 
ATOM     50  C   UNL     1       6.087   5.412 -12.920  0.00  0.00    +0.172 A 
ATOM     51  C   UNL     1       4.718   5.232 -12.845  0.00  0.00    +0.041 A 
ATOM     52  C   UNL     1       3.963   5.643 -11.746  0.00  0.00    +0.027 A 
BRANCH  50  53
ATOM     53  O   UNL     1       6.814   5.177 -14.092  0.00  0.00    -0.468 OA
ATOM     54  C   UNL     1       6.713   6.093 -15.179  0.00  0.00    +0.253 C 
ENDBRANCH  50  53
BRANCH  49  55
ATOM     55  O   UNL     1       8.004   6.689 -12.154  0.00  0.00    -0.468 OA
ATOM     56  C   UNL     1       9.194   5.904 -12.213  0.00  0.00    +0.253 C 
ENDBRANCH  49  55
BRANCH  42  57
ATOM     57  C   UNL     1       2.084   5.450 -13.203  0.00  0.00    +0.086 C 
BRANCH  57  61
ATOM     58  C   UNL     1       0.702   7.563 -16.592  0.00  0.00    +0.172 A 
ATOM     59  C   UNL     1       1.990   7.747 -16.126  0.00  0.00    +0.172 A 
ATOM     60  C   UNL     1       2.439   6.895 -15.128  0.00  0.00    +0.036 A 
ATOM     61  C   UNL     1       1.538   6.202 -14.347  0.00  0.00    -0.013 A 
ATOM     62  C   UNL     1       0.270   5.998 -14.816  0.00  0.00    -0.001 A 
ATOM     63  C   UNL     1      -0.182   6.805 -15.833  0.00  0.00    +0.040 A 
BRANCH  58  65
ATOM     64  C   UNL     1      -0.368   9.021 -17.952  0.00  0.00    +0.253 C 
ATOM     65  O   UNL     1       0.373   8.096 -17.822  0.00  0.00    -0.468 OA
ENDBRANCH  58  65
BRANCH  59  66
ATOM     66  O   UNL     1       2.718   8.848 -16.532  0.00  0.00    -0.468 OA
ATOM     67  C   UNL     1       4.093   8.689 -16.845  0.00  0.00    +0.253 C 
ENDBRANCH  59  66
ENDBRANCH  57  61
ENDBRANCH  42  57
ENDBRANCH  41  43
ENDBRANCH  40  41
ENDBRANCH  38  40
ENDBRANCH  37  38
ENDBRANCH  36  37
ENDBRANCH  35  36
ENDBRANCH   1  35
TORSDOF 26
ENDMDL
MODEL 2
REMARK VINA RESULT:      -7.5      4.026     12.123
REMARK  Name = 
REMARK  26 active torsions:
REMARK  status: ('A' for Active; 'I' for Inactive)
REMARK    1  A    between atoms: O_2  and  C_3
REMARK    2  A    between atoms: C_6  and  C_7
REMARK    3  A    between atoms: C_7  and  C_8
REMARK    4  A    between atoms: C_11  and  O_12
REMARK    5  A    between atoms: C_14  and  O_15
REMARK    6  A    between atoms: N_21  and  C_23
REMARK    7  A    between atoms: C_23  and  C_24
REMARK    8  A    between atoms: C_24  and  C_25
REMARK    9  A    between atoms: C_25  and  O_27
REMARK   10  A    between atoms: O_27  and  C_28
REMARK   11  A    between atoms: C_28  and  C_29
REMARK   12  A    between atoms: C_29  and  C_30
REMARK   13  A    between atoms: C_30  and  C_31
REMARK   14  A    between atoms: C_31  and  C_32
REMARK   15  A    between atoms: C_32  and  O_33
REMARK   16  A    between atoms: O_33  and  C_34
REMARK   17  A    between atoms: C_34  and  C_36
REMARK   18  A    between atoms: C_36  and  C_37
REMARK   19  A    between atoms: C_37  and  N_38
REMARK   20  A    between atoms: C_44  and  O_45
REMARK   21  A    between atoms: C_47  and  O_48
REMARK   22  A    between atoms: C_52  and  C_53
REMARK   23  A    between atoms: C_53  and  C_54
REMARK   24  A    between atoms: C_57  and  O_58
REMARK   25  A    between atoms: C_60  and  O_61
REMARK   26  A    between atoms: C_65  and  O_66
REMARK                            x       y       z     vdW  Elec       q    Type
REMARK                         _______ _______ _______ _____ _____    ______ ____
ROOT
ATOM      1  C   UNL     1       4.719   7.188  -1.149  0.00  0.00    +0.008 C 
ENDROOT
BRANCH   1   2
ATOM      2  C   UNL     1       4.048   5.901  -0.684  0.00  0.00    +0.048 C 
BRANCH   2   3
ATOM      3  C   UNL     1       4.222   4.923  -1.800  0.00  0.00    +0.208 C 
BRANCH   3   4
ATOM      4  O   UNL     1       3.215   5.015  -2.798  0.00  0.00    -0.448 OA
BRANCH   4   5
ATOM      5  C   UNL     1       3.601   5.226  -4.125  0.00  0.00    +0.323 C 
ATOM      6  O   UNL     1       3.909   6.429  -4.387  0.00  0.00    -0.250 OA
BRANCH   5   7
ATOM      7  C   UNL     1       3.666   4.141  -5.137  0.00  0.00    +0.170 C 
BRANCH   7   8
ATOM      8  C   UNL     1       2.456   4.142  -6.059  0.00  0.00    +0.121 C 
BRANCH   8   9
ATOM      9  N   UNL     1       2.831   4.806  -7.285  0.00  0.00    +0.301 N 
ATOM     10  C   UNL     1       2.013   6.178  -7.267  0.00  0.00    +0.086 C 
ATOM     11  C   UNL     1       2.165   6.369  -8.877  0.00  0.00    +0.027 A 
ATOM     12  C   UNL     1       3.466   6.614  -9.270  0.00  0.00    -0.012 A 
ATOM     13  C   UNL     1       3.752   6.587 -10.612  0.00  0.00    +0.036 A 
ATOM     14  C   UNL     1       2.720   6.360 -11.515  0.00  0.00    +0.172 A 
ATOM     15  C   UNL     1       1.474   5.960 -11.048  0.00  0.00    +0.172 A 
ATOM     16  C   UNL     1       4.482   6.395  -8.205  0.00  0.00    +0.087 C 
ATOM     17  C   UNL     1       1.153   6.127  -9.703  0.00  0.00    +0.041 A 
ATOM     18  C   UNL     1       4.197   5.200  -7.352  0.00  0.00    +0.114 C 
ATOM     19  C   UNL     1       2.331   4.054  -8.381  0.00  0.00    +0.171 C 
BRANCH  14  20
ATOM     20  O   UNL     1       3.113   5.963 -12.797  0.00  0.00    -0.468 OA
ATOM     21  C   UNL     1       4.418   5.465 -12.973  0.00  0.00    +0.253 C 
ENDBRANCH  14  20
BRANCH  15  22
ATOM     22  O   UNL     1       0.738   5.062 -11.831  0.00  0.00    -0.468 OA
ATOM     23  C   UNL     1      -0.211   4.195 -11.268  0.00  0.00    +0.253 C 
ENDBRANCH  15  22
BRANCH  10  24
ATOM     24  C   UNL     1       0.551   5.370  -7.331  0.00  0.00    +0.086 C 
BRANCH  24  25
ATOM     25  C   UNL     1      -0.148   6.015  -6.170  0.00  0.00    -0.013 A 
ATOM     26  C   UNL     1      -1.399   5.585  -5.740  0.00  0.00    +0.036 A 
ATOM     27  C   UNL     1      -1.827   5.771  -4.428  0.00  0.00    +0.172 A 
ATOM     28  C   UNL     1      -0.816   5.866  -3.478  0.00  0.00    +0.172 A 
ATOM     29  C   UNL     1       0.304   6.576  -3.892  0.00  0.00    +0.040 A 
ATOM     30  C   UNL     1       0.522   6.808  -5.247  0.00  0.00    -0.001 A 
BRANCH  28  31
ATOM     31  O   UNL     1      -0.852   5.190  -2.263  0.00  0.00    -0.468 OA
ATOM     32  C   UNL     1       0.160   5.394  -1.297  0.00  0.00    +0.253 C 
ENDBRANCH  28  31
BRANCH  27  33
ATOM     33  O   UNL     1      -3.043   5.235  -3.989  0.00  0.00    -0.468 OA
ATOM     34  C   UNL     1      -3.768   5.913  -2.983  0.00  0.00    +0.253 C 
ENDBRANCH  27  33
ENDBRANCH  24  25
ENDBRANCH  10  24
ENDBRANCH   8   9
ENDBRANCH   7   8
ENDBRANCH   5   7
ENDBRANCH   4   5
ENDBRANCH   3   4
ENDBRANCH   2   3
ENDBRANCH   1   2
BRANCH   1  35
ATOM     35  C   UNL     1       3.726   8.283  -1.426  0.00  0.00    +0.048 C 
BRANCH  35  36
ATOM     36  C   UNL     1       3.261   8.997  -0.182  0.00  0.00    +0.208 C 
BRANCH  36  37
ATOM     37  O   UNL     1       3.506  10.378  -0.202  0.00  0.00    -0.448 OA
BRANCH  37  38
ATOM     38  C   UNL     1       4.119  11.043   0.855  0.00  0.00    +0.323 C 
ATOM     39  O   UNL     1       4.453  10.306   1.832  0.00  0.00    -0.250 OA
BRANCH  38  40
ATOM     40  C   UNL     1       4.379  12.506   0.856  0.00  0.00    +0.170 C 
BRANCH  40  41
ATOM     41  C   UNL     1       5.874  12.769   0.713  0.00  0.00    +0.121 C 
BRANCH  41  43
ATOM     42  C   UNL     1       7.610  14.503   0.710  0.00  0.00    +0.086 C 
ATOM     43  N   UNL     1       6.308  13.901   1.398  0.00  0.00    +0.301 N 
ATOM     44  C   UNL     1       5.409  15.055   1.324  0.00  0.00    +0.171 C 
ATOM     45  C   UNL     1       6.599  13.679   2.762  0.00  0.00    +0.114 C 
ATOM     46  C   UNL     1       7.793  14.382   3.320  0.00  0.00    +0.087 C 
ATOM     47  C   UNL     1       8.951  13.788   2.578  0.00  0.00    -0.012 A 
ATOM     48  C   UNL     1      10.169  13.530   3.151  0.00  0.00    +0.036 A 
ATOM     49  C   UNL     1      11.255  13.512   2.283  0.00  0.00    +0.172 A 
ATOM     50  C   UNL     1      11.001  13.171   0.961  0.00  0.00    +0.172 A 
ATOM     51  C   UNL     1       9.703  13.118   0.488  0.00  0.00    +0.041 A 
ATOM     52  C   UNL     1       8.594  13.332   1.307  0.00  0.00    +0.027 A 
BRANCH  50  53
ATOM     53  O   UNL     1      12.113  13.148   0.111  0.00  0.00    -0.468 OA
ATOM     54  C   UNL     1      12.061  13.837  -1.135  0.00  0.00    +0.253 C 
ENDBRANCH  50  53
BRANCH  49  55
ATOM     55  O   UNL     1      12.499  14.028   2.667  0.00  0.00    -0.468 OA
ATOM     56  C   UNL     1      13.580  13.152   2.985  0.00  0.00    +0.253 C 
ENDBRANCH  49  55
BRANCH  42  57
ATOM     57  C   UNL     1       7.396  13.682  -0.726  0.00  0.00    +0.086 C 
BRANCH  57  61
ATOM     58  C   UNL     1       7.311  16.592  -3.790  0.00  0.00    +0.172 A 
ATOM     59  C   UNL     1       8.514  16.089  -3.330  0.00  0.00    +0.172 A 
ATOM     60  C   UNL     1       8.469  15.012  -2.458  0.00  0.00    +0.036 A 
ATOM     61  C   UNL     1       7.316  14.735  -1.753  0.00  0.00    -0.013 A 
ATOM     62  C   UNL     1       6.121  15.212  -2.219  0.00  0.00    -0.001 A 
ATOM     63  C   UNL     1       6.145  16.253  -3.115  0.00  0.00    +0.040 A 
BRANCH  58  65
ATOM     64  C   UNL     1       6.837  17.006  -5.963  0.00  0.00    +0.253 C 
ATOM     65  O   UNL     1       7.324  17.363  -4.934  0.00  0.00    -0.468 OA
ENDBRANCH  58  65
BRANCH  59  66
ATOM     66  O   UNL     1       9.691  16.758  -3.608  0.00  0.00    -0.468 OA
ATOM     67  C   UNL     1      10.552  17.112  -2.537  0.00  0.00    +0.253 C 
ENDBRANCH  59  66
ENDBRANCH  57  61
ENDBRANCH  42  57
ENDBRANCH  41  43
ENDBRANCH  40  41
ENDBRANCH  38  40
ENDBRANCH  37  38
ENDBRANCH  36  37
ENDBRANCH  35  36
ENDBRANCH   1  35
TORSDOF 26
ENDMDL
MODEL 3
REMARK VINA RESULT:      -7.3      2.073     13.168
REMARK  Name = 
REMARK  26 active torsions:
REMARK  status: ('A' for Active; 'I' for Inactive)
REMARK    1  A    between atoms: O_2  and  C_3
REMARK    2  A    between atoms: C_6  and  C_7
REMARK    3  A    between atoms: C_7  and  C_8
REMARK    4  A    between atoms: C_11  and  O_12
REMARK    5  A    between atoms: C_14  and  O_15
REMARK    6  A    between atoms: N_21  and  C_23
REMARK    7  A    between atoms: C_23  and  C_24
REMARK    8  A    between atoms: C_24  and  C_25
REMARK    9  A    between atoms: C_25  and  O_27
REMARK   10  A    between atoms: O_27  and  C_28
REMARK   11  A    between atoms: C_28  and  C_29
REMARK   12  A    between atoms: C_29  and  C_30
REMARK   13  A    between atoms: C_30  and  C_31
REMARK   14  A    between atoms: C_31  and  C_32
REMARK   15  A    between atoms: C_32  and  O_33
REMARK   16  A    between atoms: O_33  and  C_34
REMARK   17  A    between atoms: C_34  and  C_36
REMARK   18  A    between atoms: C_36  and  C_37
REMARK   19  A    between atoms: C_37  and  N_38
REMARK   20  A    between atoms: C_44  and  O_45
REMARK   21  A    between atoms: C_47  and  O_48
REMARK   22  A    between atoms: C_52  and  C_53
REMARK   23  A    between atoms: C_53  and  C_54
REMARK   24  A    between atoms: C_57  and  O_58
REMARK   25  A    between atoms: C_60  and  O_61
REMARK   26  A    between atoms: C_65  and  O_66
REMARK                            x       y       z     vdW  Elec       q    Type
REMARK                         _______ _______ _______ _____ _____    ______ ____
ROOT
ATOM      1  C   UNL     1       4.346   6.966  -5.168  0.00  0.00    +0.008 C 
ENDROOT
BRANCH   1   2
ATOM      2  C   UNL     1       4.474   5.465  -5.406  0.00  0.00    +0.048 C 
BRANCH   2   3
ATOM      3  C   UNL     1       3.077   4.936  -5.436  0.00  0.00    +0.208 C 
BRANCH   3   4
ATOM      4  O   UNL     1       2.482   4.975  -6.725  0.00  0.00    -0.448 OA
BRANCH   4   5
ATOM      5  C   UNL     1       1.285   5.680  -6.892  0.00  0.00    +0.323 C 
ATOM      6  O   UNL     1       0.863   6.236  -5.832  0.00  0.00    -0.250 OA
BRANCH   5   7
ATOM      7  C   UNL     1       0.579   5.789  -8.193  0.00  0.00    +0.170 C 
BRANCH   7   8
ATOM      8  C   UNL     1       1.381   6.577  -9.218  0.00  0.00    +0.121 C 
BRANCH   8   9
ATOM      9  N   UNL     1       1.011   6.105 -10.531  0.00  0.00    +0.301 N 
ATOM     10  C   UNL     1       2.234   5.185 -10.988  0.00  0.00    +0.086 C 
ATOM     11  C   UNL     1       1.827   5.306 -12.561  0.00  0.00    +0.027 A 
ATOM     12  C   UNL     1       0.638   4.673 -12.860  0.00  0.00    -0.012 A 
ATOM     13  C   UNL     1       0.089   4.880 -14.100  0.00  0.00    +0.036 A 
ATOM     14  C   UNL     1       0.770   5.677 -15.012  0.00  0.00    +0.172 A 
ATOM     15  C   UNL     1       1.872   6.413 -14.593  0.00  0.00    +0.172 A 
ATOM     16  C   UNL     1      -0.149   4.247 -11.670  0.00  0.00    +0.087 C 
ATOM     17  C   UNL     1       2.502   6.093 -13.392  0.00  0.00    +0.041 A 
ATOM     18  C   UNL     1      -0.120   5.241 -10.554  0.00  0.00    +0.114 C 
ATOM     19  C   UNL     1       0.986   7.211 -11.422  0.00  0.00    +0.171 C 
BRANCH  14  20
ATOM     20  O   UNL     1       0.009   6.162 -16.080  0.00  0.00    -0.468 OA
ATOM     21  C   UNL     1      -0.850   7.254 -15.849  0.00  0.00    +0.253 C 
ENDBRANCH  14  20
BRANCH  15  22
ATOM     22  O   UNL     1       2.077   7.672 -15.170  0.00  0.00    -0.468 OA
ATOM     23  C   UNL     1       2.980   7.862 -16.229  0.00  0.00    +0.253 C 
ENDBRANCH  15  22
BRANCH  10  24
ATOM     24  C   UNL     1       3.285   6.486 -10.985  0.00  0.00    +0.086 C 
BRANCH  24  25
ATOM     25  C   UNL     1       4.594   5.755 -10.958  0.00  0.00    -0.013 A 
ATOM     26  C   UNL     1       5.245   5.377 -12.129  0.00  0.00    +0.036 A 
ATOM     27  C   UNL     1       6.624   5.191 -12.174  0.00  0.00    +0.172 A 
ATOM     28  C   UNL     1       7.355   5.908 -11.234  0.00  0.00    +0.172 A 
ATOM     29  C   UNL     1       6.762   5.993  -9.980  0.00  0.00    +0.040 A 
ATOM     30  C   UNL     1       5.405   5.723  -9.830  0.00  0.00    -0.001 A 
BRANCH  28  31
ATOM     31  O   UNL     1       8.515   6.609 -11.549  0.00  0.00    -0.468 OA
ATOM     32  C   UNL     1       9.669   5.924 -11.992  0.00  0.00    +0.253 C 
ENDBRANCH  28  31
BRANCH  27  33
ATOM     33  O   UNL     1       7.270   4.917 -13.385  0.00  0.00    -0.468 OA
ATOM     34  C   UNL     1       6.948   5.690 -14.524  0.00  0.00    +0.253 C 
ENDBRANCH  27  33
ENDBRANCH  24  25
ENDBRANCH  10  24
ENDBRANCH   8   9
ENDBRANCH   7   8
ENDBRANCH   5   7
ENDBRANCH   4   5
ENDBRANCH   3   4
ENDBRANCH   2   3
ENDBRANCH   1   2
BRANCH   1  35
ATOM     35  C   UNL     1       5.185   7.435  -4.013  0.00  0.00    +0.048 C 
BRANCH  35  36
ATOM     36  C   UNL     1       4.399   7.627  -2.741  0.00  0.00    +0.208 C 
BRANCH  36  37
ATOM     37  O   UNL     1       4.052   6.426  -2.107  0.00  0.00    -0.448 OA
BRANCH  37  38
ATOM     38  C   UNL     1       4.319   6.185  -0.763  0.00  0.00    +0.323 C 
ATOM     39  O   UNL     1       4.096   4.998  -0.375  0.00  0.00    -0.250 OA
BRANCH  38  40
ATOM     40  C   UNL     1       4.834   7.225   0.165  0.00  0.00    +0.170 C 
BRANCH  40  41
ATOM     41  C   UNL     1       3.677   8.049   0.719  0.00  0.00    +0.121 C 
BRANCH  41  43
ATOM     42  C   UNL     1       3.381  10.097   2.037  0.00  0.00    +0.086 C 
ATOM     43  N   UNL     1       3.939   8.609   1.967  0.00  0.00    +0.301 N 
ATOM     44  C   UNL     1       3.216   7.999   3.085  0.00  0.00    +0.171 C 
ATOM     45  C   UNL     1       5.307   8.639   2.314  0.00  0.00    +0.114 C 
ATOM     46  C   UNL     1       5.796   9.859   3.024  0.00  0.00    +0.087 C 
ATOM     47  C   UNL     1       5.629  10.960   2.021  0.00  0.00    -0.012 A 
ATOM     48  C   UNL     1       6.515  11.996   1.875  0.00  0.00    +0.036 A 
ATOM     49  C   UNL     1       5.993  13.169   1.344  0.00  0.00    +0.172 A 
ATOM     50  C   UNL     1       4.892  13.048   0.505  0.00  0.00    +0.172 A 
ATOM     51  C   UNL     1       4.199  11.853   0.427  0.00  0.00    +0.041 A 
ATOM     52  C   UNL     1       4.596  10.707   1.116  0.00  0.00    +0.027 A 
BRANCH  50  53
ATOM     53  O   UNL     1       4.394  14.242  -0.027  0.00  0.00    -0.468 OA
ATOM     54  C   UNL     1       4.765  14.635  -1.346  0.00  0.00    +0.253 C 
ENDBRANCH  50  53
BRANCH  49  55
ATOM     55  O   UNL     1       6.412  14.424   1.804  0.00  0.00    -0.468 OA
ATOM     56  C   UNL     1       6.017  14.892   3.092  0.00  0.00    +0.253 C 
ENDBRANCH  49  55
BRANCH  42  57
ATOM     57  C   UNL     1       2.377   9.928   0.716  0.00  0.00    +0.086 C 
BRANCH  57  61
ATOM     58  C   UNL     1      -1.482   9.299   2.322  0.00  0.00    +0.172 A 
ATOM     59  C   UNL     1      -1.100   8.680   1.146  0.00  0.00    +0.172 A 
ATOM     60  C   UNL     1       0.231   8.781   0.771  0.00  0.00    +0.036 A 
ATOM     61  C   UNL     1       1.026   9.783   1.287  0.00  0.00    -0.013 A 
ATOM     62  C   UNL     1       0.662  10.382   2.462  0.00  0.00    -0.001 A 
ATOM     63  C   UNL     1      -0.643  10.260   2.873  0.00  0.00    +0.040 A 
BRANCH  58  65
ATOM     64  C   UNL     1      -3.670   9.513   2.856  0.00  0.00    +0.253 C 
ATOM     65  O   UNL     1      -2.656   8.890   2.921  0.00  0.00    -0.468 OA
ENDBRANCH  58  65
BRANCH  59  66
ATOM     66  O   UNL     1      -2.058   8.135   0.313  0.00  0.00    -0.468 OA
ATOM     67  C   UNL     1      -1.766   6.928  -0.376  0.00  0.00    +0.253 C 
ENDBRANCH  59  66
ENDBRANCH  57  61
ENDBRANCH  42  57
ENDBRANCH  41  43
ENDBRANCH  40  41
ENDBRANCH  38  40
ENDBRANCH  37  38
ENDBRANCH  36  37
ENDBRANCH  35  36
ENDBRANCH   1  35
TORSDOF 26
ENDMDL
MODEL 4
REMARK VINA RESULT:      -7.2      1.799     12.319
REMARK  Name = 
REMARK  26 active torsions:
REMARK  status: ('A' for Active; 'I' for Inactive)
REMARK    1  A    between atoms: O_2  and  C_3
REMARK    2  A    between atoms: C_6  and  C_7
REMARK    3  A    between atoms: C_7  and  C_8
REMARK    4  A    between atoms: C_11  and  O_12
REMARK    5  A    between atoms: C_14  and  O_15
REMARK    6  A    between atoms: N_21  and  C_23
REMARK    7  A    between atoms: C_23  and  C_24
REMARK    8  A    between atoms: C_24  and  C_25
REMARK    9  A    between atoms: C_25  and  O_27
REMARK   10  A    between atoms: O_27  and  C_28
REMARK   11  A    between atoms: C_28  and  C_29
REMARK   12  A    between atoms: C_29  and  C_30
REMARK   13  A    between atoms: C_30  and  C_31
REMARK   14  A    between atoms: C_31  and  C_32
REMARK   15  A    between atoms: C_32  and  O_33
REMARK   16  A    between atoms: O_33  and  C_34
REMARK   17  A    between atoms: C_34  and  C_36
REMARK   18  A    between atoms: C_36  and  C_37
REMARK   19  A    between atoms: C_37  and  N_38
REMARK   20  A    between atoms: C_44  and  O_45
REMARK   21  A    between atoms: C_47  and  O_48
REMARK   22  A    between atoms: C_52  and  C_53
REMARK   23  A    between atoms: C_53  and  C_54
REMARK   24  A    between atoms: C_57  and  O_58
REMARK   25  A    between atoms: C_60  and  O_61
REMARK   26  A    between atoms: C_65  and  O_66
REMARK                            x       y       z     vdW  Elec       q    Type
REMARK                         _______ _______ _______ _____ _____    ______ ____
ROOT
ATOM      1  C   UNL     1       0.284   6.092  -2.044  0.00  0.00    +0.008 C 
ENDROOT
BRANCH   1   2
ATOM      2  C   UNL     1      -0.515   6.055  -3.343  0.00  0.00    +0.048 C 
BRANCH   2   3
ATOM      3  C   UNL     1       0.438   6.457  -4.420  0.00  0.00    +0.208 C 
BRANCH   3   4
ATOM      4  O   UNL     1       0.062   6.000  -5.712  0.00  0.00    -0.448 OA
BRANCH   4   5
ATOM      5  C   UNL     1       0.953   6.179  -6.775  0.00  0.00    +0.323 C 
ATOM      6  O   UNL     1       2.050   6.722  -6.441  0.00  0.00    -0.250 OA
BRANCH   5   7
ATOM      7  C   UNL     1       0.657   5.755  -8.166  0.00  0.00    +0.170 C 
BRANCH   7   8
ATOM      8  C   UNL     1       1.401   6.597  -9.193  0.00  0.00    +0.121 C 
BRANCH   8   9
ATOM      9  N   UNL     1       1.036   6.121 -10.507  0.00  0.00    +0.301 N 
ATOM     10  C   UNL     1       2.265   5.205 -10.958  0.00  0.00    +0.086 C 
ATOM     11  C   UNL     1       1.862   5.322 -12.532  0.00  0.00    +0.027 A 
ATOM     12  C   UNL     1       0.676   4.683 -12.834  0.00  0.00    -0.012 A 
ATOM     13  C   UNL     1       0.130   4.887 -14.076  0.00  0.00    +0.036 A 
ATOM     14  C   UNL     1       0.811   5.685 -14.987  0.00  0.00    +0.172 A 
ATOM     15  C   UNL     1       1.909   6.426 -14.566  0.00  0.00    +0.172 A 
ATOM     16  C   UNL     1      -0.112   4.257 -11.646  0.00  0.00    +0.087 C 
ATOM     17  C   UNL     1       2.536   6.110 -13.363  0.00  0.00    +0.041 A 
ATOM     18  C   UNL     1      -0.090   5.253 -10.531  0.00  0.00    +0.114 C 
ATOM     19  C   UNL     1       1.010   7.226 -11.399  0.00  0.00    +0.171 C 
BRANCH  14  20
ATOM     20  O   UNL     1       0.052   6.165 -16.059  0.00  0.00    -0.468 OA
ATOM     21  C   UNL     1      -0.843   7.227 -15.823  0.00  0.00    +0.253 C 
ENDBRANCH  14  20
BRANCH  15  22
ATOM     22  O   UNL     1       2.111   7.684 -15.145  0.00  0.00    -0.468 OA
ATOM     23  C   UNL     1       2.973   7.866 -16.239  0.00  0.00    +0.253 C 
ENDBRANCH  15  22
BRANCH  10  24
ATOM     24  C   UNL     1       3.310   6.510 -10.954  0.00  0.00    +0.086 C 
BRANCH  24  25
ATOM     25  C   UNL     1       4.623   5.784 -10.940  0.00  0.00    -0.013 A 
ATOM     26  C   UNL     1       5.242   5.370 -12.115  0.00  0.00    +0.036 A 
ATOM     27  C   UNL     1       6.620   5.186 -12.192  0.00  0.00    +0.172 A 
ATOM     28  C   UNL     1       7.374   5.936 -11.296  0.00  0.00    +0.172 A 
ATOM     29  C   UNL     1       6.815   6.059 -10.031  0.00  0.00    +0.040 A 
ATOM     30  C   UNL     1       5.465   5.790  -9.834  0.00  0.00    -0.001 A 
BRANCH  28  31
ATOM     31  O   UNL     1       8.523   6.629 -11.666  0.00  0.00    -0.468 OA
ATOM     32  C   UNL     1       9.702   5.931 -12.012  0.00  0.00    +0.253 C 
ENDBRANCH  28  31
BRANCH  27  33
ATOM     33  O   UNL     1       7.233   4.876 -13.412  0.00  0.00    -0.468 OA
ATOM     34  C   UNL     1       6.970   5.687 -14.539  0.00  0.00    +0.253 C 
ENDBRANCH  27  33
ENDBRANCH  24  25
ENDBRANCH  10  24
ENDBRANCH   8   9
ENDBRANCH   7   8
ENDBRANCH   5   7
ENDBRANCH   4   5
ENDBRANCH   3   4
ENDBRANCH   2   3
ENDBRANCH   1   2
BRANCH   1  35
ATOM     35  C   UNL     1      -0.560   6.492  -0.866  0.00  0.00    +0.048 C 
BRANCH  35  36
ATOM     36  C   UNL     1       0.250   6.904   0.337  0.00  0.00    +0.208 C 
BRANCH  36  37
ATOM     37  O   UNL     1      -0.483   7.628   1.288  0.00  0.00    -0.448 OA
BRANCH  37  38
ATOM     38  C   UNL     1      -0.129   8.914   1.683  0.00  0.00    +0.323 C 
ATOM     39  O   UNL     1      -0.809   9.845   1.154  0.00  0.00    -0.250 OA
BRANCH  38  40
ATOM     40  C   UNL     1       0.956   9.197   2.657  0.00  0.00    +0.170 C 
BRANCH  40  41
ATOM     41  C   UNL     1       2.028  10.064   2.006  0.00  0.00    +0.121 C 
BRANCH  41  43
ATOM     42  C   UNL     1       4.093   9.686   0.735  0.00  0.00    +0.086 C 
ATOM     43  N   UNL     1       3.313   9.537   2.114  0.00  0.00    +0.301 N 
ATOM     44  C   UNL     1       4.211  10.269   3.009  0.00  0.00    +0.171 C 
ATOM     45  C   UNL     1       3.353   8.178   2.493  0.00  0.00    +0.114 C 
ATOM     46  C   UNL     1       4.378   7.321   1.826  0.00  0.00    +0.087 C 
ATOM     47  C   UNL     1       3.965   7.307   0.385  0.00  0.00    -0.012 A 
ATOM     48  C   UNL     1       4.072   6.206  -0.424  0.00  0.00    +0.036 A 
ATOM     49  C   UNL     1       4.181   6.464  -1.786  0.00  0.00    +0.172 A 
ATOM     50  C   UNL     1       3.611   7.642  -2.253  0.00  0.00    +0.172 A 
ATOM     51  C   UNL     1       3.201   8.621  -1.366  0.00  0.00    +0.041 A 
ATOM     52  C   UNL     1       3.269   8.460   0.017  0.00  0.00    +0.027 A 
BRANCH  50  53
ATOM     53  O   UNL     1       3.723   7.872  -3.628  0.00  0.00    -0.468 OA
ATOM     54  C   UNL     1       5.012   8.044  -4.212  0.00  0.00    +0.253 C 
ENDBRANCH  50  53
BRANCH  49  55
ATOM     55  O   UNL     1       5.012   5.692  -2.607  0.00  0.00    -0.468 OA
ATOM     56  C   UNL     1       4.469   4.649  -3.414  0.00  0.00    +0.253 C 
ENDBRANCH  49  55
BRANCH  42  57
ATOM     57  C   UNL     1       3.053  10.834   0.115  0.00  0.00    +0.086 C 
BRANCH  57  61
ATOM     58  C   UNL     1       5.713  13.968  -0.868  0.00  0.00    +0.172 A 
ATOM     59  C   UNL     1       5.875  13.249   0.301  0.00  0.00    +0.172 A 
ATOM     60  C   UNL     1       5.086  12.123   0.477  0.00  0.00    +0.036 A 
ATOM     61  C   UNL     1       3.921  11.970  -0.246  0.00  0.00    -0.013 A 
ATOM     62  C   UNL     1       3.767  12.662  -1.415  0.00  0.00    -0.001 A 
ATOM     63  C   UNL     1       4.568  13.759  -1.628  0.00  0.00    +0.040 A 
BRANCH  58  65
ATOM     64  C   UNL     1       7.685  14.457  -1.863  0.00  0.00    +0.253 C 
ATOM     65  O   UNL     1       6.727  14.821  -1.254  0.00  0.00    -0.468 OA
ENDBRANCH  58  65
BRANCH  59  66
ATOM     66  O   UNL     1       6.674  13.749   1.311  0.00  0.00    -0.468 OA
ATOM     67  C   UNL     1       7.980  13.219   1.483  0.00  0.00    +0.253 C 
ENDBRANCH  59  66
ENDBRANCH  57  61
ENDBRANCH  42  57
ENDBRANCH  41  43
ENDBRANCH  40  41
ENDBRANCH  38  40
ENDBRANCH  37  38
ENDBRANCH  36  37
ENDBRANCH  35  36
ENDBRANCH   1  35
TORSDOF 26
ENDMDL
MODEL 5
REMARK VINA RESULT:      -7.0      2.019     12.725
REMARK  Name = 
REMARK  26 active torsions:
REMARK  status: ('A' for Active; 'I' for Inactive)
REMARK    1  A    between atoms: O_2  and  C_3
REMARK    2  A    between atoms: C_6  and  C_7
REMARK    3  A    between atoms: C_7  and  C_8
REMARK    4  A    between atoms: C_11  and  O_12
REMARK    5  A    between atoms: C_14  and  O_15
REMARK    6  A    between atoms: N_21  and  C_23
REMARK    7  A    between atoms: C_23  and  C_24
REMARK    8  A    between atoms: C_24  and  C_25
REMARK    9  A    between atoms: C_25  and  O_27
REMARK   10  A    between atoms: O_27  and  C_28
REMARK   11  A    between atoms: C_28  and  C_29
REMARK   12  A    between atoms: C_29  and  C_30
REMARK   13  A    between atoms: C_30  and  C_31
REMARK   14  A    between atoms: C_31  and  C_32
REMARK   15  A    between atoms: C_32  and  O_33
REMARK   16  A    between atoms: O_33  and  C_34
REMARK   17  A    between atoms: C_34  and  C_36
REMARK   18  A    between atoms: C_36  and  C_37
REMARK   19  A    between atoms: C_37  and  N_38
REMARK   20  A    between atoms: C_44  and  O_45
REMARK   21  A    between atoms: C_47  and  O_48
REMARK   22  A    between atoms: C_52  and  C_53
REMARK   23  A    between atoms: C_53  and  C_54
REMARK   24  A    between atoms: C_57  and  O_58
REMARK   25  A    between atoms: C_60  and  O_61
REMARK   26  A    between atoms: C_65  and  O_66
REMARK                            x       y       z     vdW  Elec       q    Type
REMARK                         _______ _______ _______ _____ _____    ______ ____
ROOT
ATOM      1  C   UNL     1       4.394   5.876  -5.691  0.00  0.00    +0.008 C 
ENDROOT
BRANCH   1   2
ATOM      2  C   UNL     1       3.901   5.755  -7.129  0.00  0.00    +0.048 C 
BRANCH   2   3
ATOM      3  C   UNL     1       2.877   6.828  -7.302  0.00  0.00    +0.208 C 
BRANCH   3   4
ATOM      4  O   UNL     1       2.218   6.787  -8.560  0.00  0.00    -0.448 OA
BRANCH   4   5
ATOM      5  C   UNL     1       0.966   6.168  -8.644  0.00  0.00    +0.323 C 
ATOM      6  O   UNL     1       0.445   5.908  -7.516  0.00  0.00    -0.250 OA
BRANCH   5   7
ATOM      7  C   UNL     1       0.294   5.860  -9.930  0.00  0.00    +0.170 C 
BRANCH   7   8
ATOM      8  C   UNL     1       1.197   5.084 -10.878  0.00  0.00    +0.121 C 
BRANCH   8   9
ATOM      9  N   UNL     1       0.785   5.382 -12.230  0.00  0.00    +0.301 N 
ATOM     10  C   UNL     1       2.091   5.126 -13.115  0.00  0.00    +0.086 C 
ATOM     11  C   UNL     1       1.524   6.041 -14.338  0.00  0.00    +0.027 A 
ATOM     12  C   UNL     1       0.427   5.483 -14.964  0.00  0.00    -0.012 A 
ATOM     13  C   UNL     1      -0.262   6.252 -15.867  0.00  0.00    +0.036 A 
ATOM     14  C   UNL     1       0.196   7.534 -16.146  0.00  0.00    +0.172 A 
ATOM     15  C   UNL     1       1.202   8.089 -15.364  0.00  0.00    +0.172 A 
ATOM     16  C   UNL     1      -0.167   4.322 -14.246  0.00  0.00    +0.087 C 
ATOM     17  C   UNL     1       1.984   7.268 -14.557  0.00  0.00    +0.041 A 
ATOM     18  C   UNL     1      -0.191   4.494 -12.761  0.00  0.00    +0.114 C 
ATOM     19  C   UNL     1       0.502   6.770 -12.324  0.00  0.00    +0.171 C 
BRANCH  14  20
ATOM     20  O   UNL     1      -0.728   8.389 -16.753  0.00  0.00    -0.468 OA
ATOM     21  C   UNL     1      -0.725   8.490 -18.158  0.00  0.00    +0.253 C 
ENDBRANCH  14  20
BRANCH  15  22
ATOM     22  O   UNL     1       1.150   9.465 -15.111  0.00  0.00    -0.468 OA
ATOM     23  C   UNL     1       1.765  10.398 -15.962  0.00  0.00    +0.253 C 
ENDBRANCH  15  22
BRANCH  10  24
ATOM     24  C   UNL     1       2.917   6.362 -12.350  0.00  0.00    +0.086 C 
BRANCH  24  25
ATOM     25  C   UNL     1       4.178   5.636 -11.983  0.00  0.00    -0.013 A 
ATOM     26  C   UNL     1       5.184   5.404 -12.915  0.00  0.00    +0.036 A 
ATOM     27  C   UNL     1       6.512   5.227 -12.532  0.00  0.00    +0.172 A 
ATOM     28  C   UNL     1       6.872   5.828 -11.331  0.00  0.00    +0.172 A 
ATOM     29  C   UNL     1       5.905   5.759 -10.336  0.00  0.00    +0.040 A 
ATOM     30  C   UNL     1       4.584   5.469 -10.665  0.00  0.00    -0.001 A 
BRANCH  28  31
ATOM     31  O   UNL     1       8.042   6.563 -11.171  0.00  0.00    -0.468 OA
ATOM     32  C   UNL     1       8.114   7.597 -10.210  0.00  0.00    +0.253 C 
ENDBRANCH  28  31
BRANCH  27  33
ATOM     33  O   UNL     1       7.523   5.104 -13.492  0.00  0.00    -0.468 OA
ATOM     34  C   UNL     1       7.349   5.714 -14.755  0.00  0.00    +0.253 C 
ENDBRANCH  27  33
ENDBRANCH  24  25
ENDBRANCH  10  24
ENDBRANCH   8   9
ENDBRANCH   7   8
ENDBRANCH   5   7
ENDBRANCH   4   5
ENDBRANCH   3   4
ENDBRANCH   2   3
ENDBRANCH   1   2
BRANCH   1  35
ATOM     35  C   UNL     1       4.116   4.638  -4.886  0.00  0.00    +0.048 C 
BRANCH  35  36
ATOM     36  C   UNL     1       4.723   4.672  -3.506  0.00  0.00    +0.208 C 
BRANCH  36  37
ATOM     37  O   UNL     1       3.844   4.264  -2.494  0.00  0.00    -0.448 OA
BRANCH  37  38
ATOM     38  C   UNL     1       4.106   4.478  -1.145  0.00  0.00    +0.323 C 
ATOM     39  O   UNL     1       3.889   3.481  -0.391  0.00  0.00    -0.250 OA
BRANCH  38  40
ATOM     40  C   UNL     1       4.610   5.768  -0.606  0.00  0.00    +0.170 C 
BRANCH  40  41
ATOM     41  C   UNL     1       3.445   6.611  -0.099  0.00  0.00    +0.121 C 
BRANCH  41  43
ATOM     42  C   UNL     1       1.446   7.679  -1.041  0.00  0.00    +0.086 C 
ATOM     43  N   UNL     1       3.034   7.592  -0.998  0.00  0.00    +0.301 N 
ATOM     44  C   UNL     1       3.367   8.965  -0.613  0.00  0.00    +0.171 C 
ATOM     45  C   UNL     1       3.496   7.400  -2.319  0.00  0.00    +0.114 C 
ATOM     46  C   UNL     1       2.541   7.719  -3.421  0.00  0.00    +0.087 C 
ATOM     47  C   UNL     1       1.436   6.721  -3.250  0.00  0.00    -0.012 A 
ATOM     48  C   UNL     1       0.779   6.129  -4.298  0.00  0.00    +0.036 A 
ATOM     49  C   UNL     1      -0.512   5.687  -4.031  0.00  0.00    +0.172 A 
ATOM     50  C   UNL     1      -0.802   5.340  -2.718  0.00  0.00    +0.172 A 
ATOM     51  C   UNL     1       0.068   5.674  -1.697  0.00  0.00    +0.041 A 
ATOM     52  C   UNL     1       1.292   6.304  -1.926  0.00  0.00    +0.027 A 
BRANCH  50  53
ATOM     53  O   UNL     1      -2.104   4.887  -2.479  0.00  0.00    -0.468 OA
ATOM     54  C   UNL     1      -3.097   5.803  -2.025  0.00  0.00    +0.253 C 
ENDBRANCH  50  53
BRANCH  49  55
ATOM     55  O   UNL     1      -1.529   5.799  -4.988  0.00  0.00    -0.468 OA
ATOM     56  C   UNL     1      -2.125   7.064  -5.268  0.00  0.00    +0.253 C 
ENDBRANCH  49  55
BRANCH  42  57
ATOM     57  C   UNL     1       1.228   6.857   0.394  0.00  0.00    +0.086 C 
BRANCH  57  61
ATOM     58  C   UNL     1      -2.036   8.920   2.112  0.00  0.00    +0.172 A 
ATOM     59  C   UNL     1      -0.780   9.497   2.074  0.00  0.00    +0.172 A 
ATOM     60  C   UNL     1       0.201   8.850   1.340  0.00  0.00    +0.036 A 
ATOM     61  C   UNL     1       0.071   7.513   1.030  0.00  0.00    -0.013 A 
ATOM     62  C   UNL     1      -1.173   6.944   1.043  0.00  0.00    -0.001 A 
ATOM     63  C   UNL     1      -2.172   7.590   1.733  0.00  0.00    +0.040 A 
BRANCH  58  65
ATOM     64  C   UNL     1      -3.762   9.516   3.449  0.00  0.00    +0.253 C 
ATOM     65  O   UNL     1      -3.106   9.714   2.472  0.00  0.00    -0.468 OA
ENDBRANCH  58  65
BRANCH  59  66
ATOM     66  O   UNL     1      -0.497  10.581   2.883  0.00  0.00    -0.468 OA
ATOM     67  C   UNL     1       0.787  10.678   3.481  0.00  0.00    +0.253 C 
ENDBRANCH  59  66
ENDBRANCH  57  61
ENDBRANCH  42  57
ENDBRANCH  41  43
ENDBRANCH  40  41
ENDBRANCH  38  40
ENDBRANCH  37  38
ENDBRANCH  36  37
ENDBRANCH  35  36
ENDBRANCH   1  35
TORSDOF 26
ENDMDL
MODEL 6
REMARK VINA RESULT:      -6.6      2.173     12.789
REMARK  Name = 
REMARK  26 active torsions:
REMARK  status: ('A' for Active; 'I' for Inactive)
REMARK    1  A    between atoms: O_2  and  C_3
REMARK    2  A    between atoms: C_6  and  C_7
REMARK    3  A    between atoms: C_7  and  C_8
REMARK    4  A    between atoms: C_11  and  O_12
REMARK    5  A    between atoms: C_14  and  O_15
REMARK    6  A    between atoms: N_21  and  C_23
REMARK    7  A    between atoms: C_23  and  C_24
REMARK    8  A    between atoms: C_24  and  C_25
REMARK    9  A    between atoms: C_25  and  O_27
REMARK   10  A    between atoms: O_27  and  C_28
REMARK   11  A    between atoms: C_28  and  C_29
REMARK   12  A    between atoms: C_29  and  C_30
REMARK   13  A    between atoms: C_30  and  C_31
REMARK   14  A    between atoms: C_31  and  C_32
REMARK   15  A    between atoms: C_32  and  O_33
REMARK   16  A    between atoms: O_33  and  C_34
REMARK   17  A    between atoms: C_34  and  C_36
REMARK   18  A    between atoms: C_36  and  C_37
REMARK   19  A    between atoms: C_37  and  N_38
REMARK   20  A    between atoms: C_44  and  O_45
REMARK   21  A    between atoms: C_47  and  O_48
REMARK   22  A    between atoms: C_52  and  C_53
REMARK   23  A    between atoms: C_53  and  C_54
REMARK   24  A    between atoms: C_57  and  O_58
REMARK   25  A    between atoms: C_60  and  O_61
REMARK   26  A    between atoms: C_65  and  O_66
REMARK                            x       y       z     vdW  Elec       q    Type
REMARK                         _______ _______ _______ _____ _____    ______ ____
ROOT
ATOM      1  C   UNL     1       2.749   6.762  -3.993  0.00  0.00    +0.008 C 
ENDROOT
BRANCH   1   2
ATOM      2  C   UNL     1       1.233   6.844  -4.132  0.00  0.00    +0.048 C 
BRANCH   2   3
ATOM      3  C   UNL     1       0.739   5.436  -4.052  0.00  0.00    +0.208 C 
BRANCH   3   4
ATOM      4  O   UNL     1      -0.397   5.185  -4.868  0.00  0.00    -0.448 OA
BRANCH   4   5
ATOM      5  C   UNL     1      -0.204   4.934  -6.230  0.00  0.00    +0.323 C 
ATOM      6  O   UNL     1      -1.232   5.149  -6.944  0.00  0.00    -0.250 OA
BRANCH   5   7
ATOM      7  C   UNL     1       1.087   4.476  -6.800  0.00  0.00    +0.170 C 
BRANCH   7   8
ATOM      8  C   UNL     1       1.072   4.464  -8.321  0.00  0.00    +0.121 C 
BRANCH   8   9
ATOM      9  N   UNL     1       2.157   5.295  -8.784  0.00  0.00    +0.301 N 
ATOM     10  C   UNL     1       1.537   6.126 -10.000  0.00  0.00    +0.086 C 
ATOM     11  C   UNL     1       3.009   6.459 -10.613  0.00  0.00    +0.027 A 
ATOM     12  C   UNL     1       3.750   7.303  -9.809  0.00  0.00    -0.012 A 
ATOM     13  C   UNL     1       5.074   7.489 -10.113  0.00  0.00    +0.036 A 
ATOM     14  C   UNL     1       5.601   6.862 -11.235  0.00  0.00    +0.172 A 
ATOM     15  C   UNL     1       4.849   5.902 -11.902  0.00  0.00    +0.172 A 
ATOM     16  C   UNL     1       3.176   7.519  -8.452  0.00  0.00    +0.087 C 
ATOM     17  C   UNL     1       3.476   5.822 -11.681  0.00  0.00    +0.041 A 
ATOM     18  C   UNL     1       2.587   6.282  -7.854  0.00  0.00    +0.114 C 
ATOM     19  C   UNL     1       3.164   4.462  -9.340  0.00  0.00    +0.171 C 
BRANCH  14  20
ATOM     20  O   UNL     1       6.995   6.768 -11.279  0.00  0.00    -0.468 OA
ATOM     21  C   UNL     1       7.677   6.381 -10.110  0.00  0.00    +0.253 C 
ENDBRANCH  14  20
BRANCH  15  22
ATOM     22  O   UNL     1       5.526   4.813 -12.463  0.00  0.00    -0.468 OA
ATOM     23  C   UNL     1       6.393   4.964 -13.557  0.00  0.00    +0.253 C 
ENDBRANCH  15  22
BRANCH  10  24
ATOM     24  C   UNL     1       1.293   4.736 -10.897  0.00  0.00    +0.086 C 
BRANCH  24  25
ATOM     25  C   UNL     1       0.701   5.335 -12.139  0.00  0.00    -0.013 A 
ATOM     26  C   UNL     1       0.734   6.706 -12.376  0.00  0.00    +0.036 A 
ATOM     27  C   UNL     1       0.689   7.227 -13.666  0.00  0.00    +0.172 A 
ATOM     28  C   UNL     1       1.166   6.388 -14.667  0.00  0.00    +0.172 A 
ATOM     29  C   UNL     1       0.833   5.049 -14.507  0.00  0.00    +0.040 A 
ATOM     30  C   UNL     1       0.415   4.577 -13.267  0.00  0.00    -0.001 A 
BRANCH  28  31
ATOM     31  O   UNL     1       2.025   6.819 -15.673  0.00  0.00    -0.468 OA
ATOM     32  C   UNL     1       3.412   6.937 -15.431  0.00  0.00    +0.253 C 
ENDBRANCH  28  31
BRANCH  27  33
ATOM     33  O   UNL     1       0.833   8.602 -13.888  0.00  0.00    -0.468 OA
ATOM     34  C   UNL     1       0.440   9.141 -15.133  0.00  0.00    +0.253 C 
ENDBRANCH  27  33
ENDBRANCH  24  25
ENDBRANCH  10  24
ENDBRANCH   8   9
ENDBRANCH   7   8
ENDBRANCH   5   7
ENDBRANCH   4   5
ENDBRANCH   3   4
ENDBRANCH   2   3
ENDBRANCH   1   2
BRANCH   1  35
ATOM     35  C   UNL     1       3.280   7.717  -2.960  0.00  0.00    +0.048 C 
BRANCH  35  36
ATOM     36  C   UNL     1       4.717   7.455  -2.585  0.00  0.00    +0.208 C 
BRANCH  36  37
ATOM     37  O   UNL     1       4.907   6.253  -1.889  0.00  0.00    -0.448 OA
BRANCH  37  38
ATOM     38  C   UNL     1       4.453   6.063  -0.588  0.00  0.00    +0.323 C 
ATOM     39  O   UNL     1       3.799   4.993  -0.398  0.00  0.00    -0.250 OA
BRANCH  38  40
ATOM     40  C   UNL     1       4.711   7.026   0.514  0.00  0.00    +0.170 C 
BRANCH  40  41
ATOM     41  C   UNL     1       3.402   7.666   0.964  0.00  0.00    +0.121 C 
BRANCH  41  43
ATOM     42  C   UNL     1       2.934   9.884   1.904  0.00  0.00    +0.086 C 
ATOM     43  N   UNL     1       3.522   8.422   2.127  0.00  0.00    +0.301 N 
ATOM     44  C   UNL     1       2.697   7.970   3.249  0.00  0.00    +0.171 C 
ATOM     45  C   UNL     1       4.846   8.553   2.600  0.00  0.00    +0.114 C 
ATOM     46  C   UNL     1       5.237   9.884   3.153  0.00  0.00    +0.087 C 
ATOM     47  C   UNL     1       5.156  10.809   1.976  0.00  0.00    -0.012 A 
ATOM     48  C   UNL     1       6.034  11.838   1.757  0.00  0.00    +0.036 A 
ATOM     49  C   UNL     1       5.550  12.896   0.996  0.00  0.00    +0.172 A 
ATOM     50  C   UNL     1       4.545  12.608   0.082  0.00  0.00    +0.172 A 
ATOM     51  C   UNL     1       3.885  11.393   0.126  0.00  0.00    +0.041 A 
ATOM     52  C   UNL     1       4.227  10.382   1.024  0.00  0.00    +0.027 A 
BRANCH  50  53
ATOM     53  O   UNL     1       4.084  13.687  -0.680  0.00  0.00    -0.468 OA
ATOM     54  C   UNL     1       4.772  14.052  -1.874  0.00  0.00    +0.253 C 
ENDBRANCH  50  53
BRANCH  49  55
ATOM     55  O   UNL     1       5.897  14.220   1.291  0.00  0.00    -0.468 OA
ATOM     56  C   UNL     1       7.166  14.741   0.903  0.00  0.00    +0.253 C 
ENDBRANCH  49  55
BRANCH  42  57
ATOM     57  C   UNL     1       2.076   9.476   0.532  0.00  0.00    +0.086 C 
BRANCH  57  61
ATOM     58  C   UNL     1      -1.952   9.204   1.783  0.00  0.00    +0.172 A 
ATOM     59  C   UNL     1      -1.455   8.347   0.818  0.00  0.00    +0.172 A 
ATOM     60  C   UNL     1      -0.089   8.366   0.584  0.00  0.00    +0.036 A 
ATOM     61  C   UNL     1       0.667   9.456   0.962  0.00  0.00    -0.013 A 
ATOM     62  C   UNL     1       0.189  10.292   1.934  0.00  0.00    -0.001 A 
ATOM     63  C   UNL     1      -1.157  10.261   2.209  0.00  0.00    +0.040 A 
BRANCH  58  65
ATOM     64  C   UNL     1      -3.384   8.794   3.486  0.00  0.00    +0.253 C 
ATOM     65  O   UNL     1      -3.195   8.931   2.317  0.00  0.00    -0.468 OA
ENDBRANCH  58  65
BRANCH  59  66
ATOM     66  O   UNL     1      -2.327   7.636   0.015  0.00  0.00    -0.468 OA
ATOM     67  C   UNL     1      -1.959   7.362  -1.328  0.00  0.00    +0.253 C 
ENDBRANCH  59  66
ENDBRANCH  57  61
ENDBRANCH  42  57
ENDBRANCH  41  43
ENDBRANCH  40  41
ENDBRANCH  38  40
ENDBRANCH  37  38
ENDBRANCH  36  37
ENDBRANCH  35  36
ENDBRANCH   1  35
TORSDOF 26
ENDMDL
MODEL 7
REMARK VINA RESULT:      -6.5      1.902     13.280
REMARK  Name = 
REMARK  26 active torsions:
REMARK  status: ('A' for Active; 'I' for Inactive)
REMARK    1  A    between atoms: O_2  and  C_3
REMARK    2  A    between atoms: C_6  and  C_7
REMARK    3  A    between atoms: C_7  and  C_8
REMARK    4  A    between atoms: C_11  and  O_12
REMARK    5  A    between atoms: C_14  and  O_15
REMARK    6  A    between atoms: N_21  and  C_23
REMARK    7  A    between atoms: C_23  and  C_24
REMARK    8  A    between atoms: C_24  and  C_25
REMARK    9  A    between atoms: C_25  and  O_27
REMARK   10  A    between atoms: O_27  and  C_28
REMARK   11  A    between atoms: C_28  and  C_29
REMARK   12  A    between atoms: C_29  and  C_30
REMARK   13  A    between atoms: C_30  and  C_31
REMARK   14  A    between atoms: C_31  and  C_32
REMARK   15  A    between atoms: C_32  and  O_33
REMARK   16  A    between atoms: O_33  and  C_34
REMARK   17  A    between atoms: C_34  and  C_36
REMARK   18  A    between atoms: C_36  and  C_37
REMARK   19  A    between atoms: C_37  and  N_38
REMARK   20  A    between atoms: C_44  and  O_45
REMARK   21  A    between atoms: C_47  and  O_48
REMARK   22  A    between atoms: C_52  and  C_53
REMARK   23  A    between atoms: C_53  and  C_54
REMARK   24  A    between atoms: C_57  and  O_58
REMARK   25  A    between atoms: C_60  and  O_61
REMARK   26  A    between atoms: C_65  and  O_66
REMARK                            x       y       z     vdW  Elec       q    Type
REMARK                         _______ _______ _______ _____ _____    ______ ____
ROOT
ATOM      1  C   UNL     1       2.712   5.540  -4.900  0.00  0.00    +0.008 C 
ENDROOT
BRANCH   1   2
ATOM      2  C   UNL     1       2.441   6.888  -5.559  0.00  0.00    +0.048 C 
BRANCH   2   3
ATOM      3  C   UNL     1       1.106   6.760  -6.216  0.00  0.00    +0.208 C 
BRANCH   3   4
ATOM      4  O   UNL     1       1.170   6.240  -7.537  0.00  0.00    -0.448 OA
BRANCH   4   5
ATOM      5  C   UNL     1       0.099   5.478  -8.014  0.00  0.00    +0.323 C 
ATOM      6  O   UNL     1      -0.698   5.087  -7.106  0.00  0.00    -0.250 OA
BRANCH   5   7
ATOM      7  C   UNL     1      -0.106   5.168  -9.450  0.00  0.00    +0.170 C 
BRANCH   7   8
ATOM      8  C   UNL     1       1.130   5.472 -10.285  0.00  0.00    +0.121 C 
BRANCH   8   9
ATOM      9  N   UNL     1       0.729   5.525 -11.671  0.00  0.00    +0.301 N 
ATOM     10  C   UNL     1       2.004   4.999 -12.479  0.00  0.00    +0.086 C 
ATOM     11  C   UNL     1       1.497   5.691 -13.863  0.00  0.00    +0.027 A 
ATOM     12  C   UNL     1       0.355   5.104 -14.373  0.00  0.00    -0.012 A 
ATOM     13  C   UNL     1      -0.281   5.727 -15.416  0.00  0.00    +0.036 A 
ATOM     14  C   UNL     1       0.269   6.889 -15.943  0.00  0.00    +0.172 A 
ATOM     15  C   UNL     1       1.321   7.512 -15.281  0.00  0.00    +0.172 A 
ATOM     16  C   UNL     1      -0.318   4.158 -13.441  0.00  0.00    +0.087 C 
ATOM     17  C   UNL     1       2.046   6.811 -14.320  0.00  0.00    +0.041 A 
ATOM     18  C   UNL     1      -0.316   4.624 -12.020  0.00  0.00    +0.114 C 
ATOM     19  C   UNL     1       0.550   6.884 -12.043  0.00  0.00    +0.171 C 
BRANCH  14  20
ATOM     20  O   UNL     1      -0.594   7.673 -16.714  0.00  0.00    -0.468 OA
ATOM     21  C   UNL     1      -0.396   7.714 -18.108  0.00  0.00    +0.253 C 
ENDBRANCH  14  20
BRANCH  15  22
ATOM     22  O   UNL     1       1.375   8.911 -15.308  0.00  0.00    -0.468 OA
ATOM     23  C   UNL     1       2.139   9.603 -16.261  0.00  0.00    +0.253 C 
ENDBRANCH  15  22
BRANCH  10  24
ATOM     24  C   UNL     1       2.928   6.297 -11.971  0.00  0.00    +0.086 C 
BRANCH  24  25
ATOM     25  C   UNL     1       4.201   5.583 -11.626  0.00  0.00    -0.013 A 
ATOM     26  C   UNL     1       5.180   5.333 -12.583  0.00  0.00    +0.036 A 
ATOM     27  C   UNL     1       6.519   5.169 -12.236  0.00  0.00    +0.172 A 
ATOM     28  C   UNL     1       6.913   5.797 -11.060  0.00  0.00    +0.172 A 
ATOM     29  C   UNL     1       5.976   5.747 -10.035  0.00  0.00    +0.040 A 
ATOM     30  C   UNL     1       4.647   5.447 -10.318  0.00  0.00    -0.001 A 
BRANCH  28  31
ATOM     31  O   UNL     1       8.085   6.539 -10.952  0.00  0.00    -0.468 OA
ATOM     32  C   UNL     1       8.136   7.684 -10.125  0.00  0.00    +0.253 C 
ENDBRANCH  28  31
BRANCH  27  33
ATOM     33  O   UNL     1       7.501   5.026 -13.223  0.00  0.00    -0.468 OA
ATOM     34  C   UNL     1       7.377   5.757 -14.426  0.00  0.00    +0.253 C 
ENDBRANCH  27  33
ENDBRANCH  24  25
ENDBRANCH  10  24
ENDBRANCH   8   9
ENDBRANCH   7   8
ENDBRANCH   5   7
ENDBRANCH   4   5
ENDBRANCH   3   4
ENDBRANCH   2   3
ENDBRANCH   1   2
BRANCH   1  35
ATOM     35  C   UNL     1       4.162   5.150  -4.974  0.00  0.00    +0.048 C 
BRANCH  35  36
ATOM     36  C   UNL     1       4.810   4.996  -3.621  0.00  0.00    +0.208 C 
BRANCH  36  37
ATOM     37  O   UNL     1       4.016   4.311  -2.691  0.00  0.00    -0.448 OA
BRANCH  37  38
ATOM     38  C   UNL     1       4.087   4.554  -1.324  0.00  0.00    +0.323 C 
ATOM     39  O   UNL     1       3.722   3.588  -0.587  0.00  0.00    -0.250 OA
BRANCH  38  40
ATOM     40  C   UNL     1       4.560   5.839  -0.748  0.00  0.00    +0.170 C 
BRANCH  40  41
ATOM     41  C   UNL     1       3.434   6.504   0.037  0.00  0.00    +0.121 C 
BRANCH  41  43
ATOM     42  C   UNL     1       1.788   8.324  -0.003  0.00  0.00    +0.086 C 
ATOM     43  N   UNL     1       2.475   7.112  -0.771  0.00  0.00    +0.301 N 
ATOM     44  C   UNL     1       3.004   7.806  -1.947  0.00  0.00    +0.171 C 
ATOM     45  C   UNL     1       1.455   6.243  -1.216  0.00  0.00    +0.114 C 
ATOM     46  C   UNL     1       0.068   6.795  -1.255  0.00  0.00    +0.087 C 
ATOM     47  C   UNL     1      -0.259   7.070   0.181  0.00  0.00    -0.012 A 
ATOM     48  C   UNL     1      -1.501   6.875   0.728  0.00  0.00    +0.036 A 
ATOM     49  C   UNL     1      -1.800   7.649   1.843  0.00  0.00    +0.172 A 
ATOM     50  C   UNL     1      -0.733   8.067   2.627  0.00  0.00    +0.172 A 
ATOM     51  C   UNL     1       0.565   7.942   2.166  0.00  0.00    +0.041 A 
ATOM     52  C   UNL     1       0.877   7.342   0.946  0.00  0.00    +0.027 A 
BRANCH  50  53
ATOM     53  O   UNL     1      -1.062   8.833   3.750  0.00  0.00    -0.468 OA
ATOM     54  C   UNL     1      -0.869  10.246   3.721  0.00  0.00    +0.253 C 
ENDBRANCH  50  53
BRANCH  49  55
ATOM     55  O   UNL     1      -3.086   8.168   2.042  0.00  0.00    -0.468 OA
ATOM     56  C   UNL     1      -3.874   7.747   3.153  0.00  0.00    +0.253 C 
ENDBRANCH  49  55
BRANCH  42  57
ATOM     57  C   UNL     1       2.982   8.444   1.156  0.00  0.00    +0.086 C 
BRANCH  57  61
ATOM     58  C   UNL     1       4.788  12.233   0.662  0.00  0.00    +0.172 A 
ATOM     59  C   UNL     1       5.230  11.366   1.644  0.00  0.00    +0.172 A 
ATOM     60  C   UNL     1       4.723  10.076   1.636  0.00  0.00    +0.036 A 
ATOM     61  C   UNL     1       3.543   9.796   0.979  0.00  0.00    -0.013 A 
ATOM     62  C   UNL     1       3.115  10.639  -0.009  0.00  0.00    -0.001 A 
ATOM     63  C   UNL     1       3.635  11.911  -0.044  0.00  0.00    +0.040 A 
BRANCH  58  65
ATOM     64  C   UNL     1       5.431  13.994  -0.606  0.00  0.00    +0.253 C 
ATOM     65  O   UNL     1       5.548  13.353   0.393  0.00  0.00    -0.468 OA
ENDBRANCH  58  65
BRANCH  59  66
ATOM     66  O   UNL     1       6.014  11.840   2.678  0.00  0.00    -0.468 OA
ATOM     67  C   UNL     1       7.425  11.731   2.579  0.00  0.00    +0.253 C 
ENDBRANCH  59  66
ENDBRANCH  57  61
ENDBRANCH  42  57
ENDBRANCH  41  43
ENDBRANCH  40  41
ENDBRANCH  38  40
ENDBRANCH  37  38
ENDBRANCH  36  37
ENDBRANCH  35  36
ENDBRANCH   1  35
TORSDOF 26
ENDMDL
MODEL 8
REMARK VINA RESULT:      -6.5      1.786      6.727
REMARK  Name = 
REMARK  26 active torsions:
REMARK  status: ('A' for Active; 'I' for Inactive)
REMARK    1  A    between atoms: O_2  and  C_3
REMARK    2  A    between atoms: C_6  and  C_7
REMARK    3  A    between atoms: C_7  and  C_8
REMARK    4  A    between atoms: C_11  and  O_12
REMARK    5  A    between atoms: C_14  and  O_15
REMARK    6  A    between atoms: N_21  and  C_23
REMARK    7  A    between atoms: C_23  and  C_24
REMARK    8  A    between atoms: C_24  and  C_25
REMARK    9  A    between atoms: C_25  and  O_27
REMARK   10  A    between atoms: O_27  and  C_28
REMARK   11  A    between atoms: C_28  and  C_29
REMARK   12  A    between atoms: C_29  and  C_30
REMARK   13  A    between atoms: C_30  and  C_31
REMARK   14  A    between atoms: C_31  and  C_32
REMARK   15  A    between atoms: C_32  and  O_33
REMARK   16  A    between atoms: O_33  and  C_34
REMARK   17  A    between atoms: C_34  and  C_36
REMARK   18  A    between atoms: C_36  and  C_37
REMARK   19  A    between atoms: C_37  and  N_38
REMARK   20  A    between atoms: C_44  and  O_45
REMARK   21  A    between atoms: C_47  and  O_48
REMARK   22  A    between atoms: C_52  and  C_53
REMARK   23  A    between atoms: C_53  and  C_54
REMARK   24  A    between atoms: C_57  and  O_58
REMARK   25  A    between atoms: C_60  and  O_61
REMARK   26  A    between atoms: C_65  and  O_66
REMARK                            x       y       z     vdW  Elec       q    Type
REMARK                         _______ _______ _______ _____ _____    ______ ____
ROOT
ATOM      1  C   UNL     1       3.261   6.565  -8.093  0.00  0.00    +0.008 C 
ENDROOT
BRANCH   1   2
ATOM      2  C   UNL     1       2.431   7.258  -7.018  0.00  0.00    +0.048 C 
BRANCH   2   3
ATOM      3  C   UNL     1       3.229   7.159  -5.759  0.00  0.00    +0.208 C 
BRANCH   3   4
ATOM      4  O   UNL     1       2.473   6.717  -4.640  0.00  0.00    -0.448 OA
BRANCH   4   5
ATOM      5  C   UNL     1       3.054   5.805  -3.754  0.00  0.00    +0.323 C 
ATOM      6  O   UNL     1       3.462   4.738  -4.307  0.00  0.00    -0.250 OA
BRANCH   5   7
ATOM      7  C   UNL     1       3.203   6.063  -2.300  0.00  0.00    +0.170 C 
BRANCH   7   8
ATOM      8  C   UNL     1       3.038   7.537  -1.959  0.00  0.00    +0.121 C 
BRANCH   8   9
ATOM      9  N   UNL     1       3.829   7.813  -0.783  0.00  0.00    +0.301 N 
ATOM     10  C   UNL     1       2.954   7.256   0.432  0.00  0.00    +0.086 C 
ATOM     11  C   UNL     1       3.750   8.174   1.516  0.00  0.00    +0.027 A 
ATOM     12  C   UNL     1       5.066   7.791   1.684  0.00  0.00    -0.012 A 
ATOM     13  C   UNL     1       5.891   8.612   2.411  0.00  0.00    +0.036 A 
ATOM     14  C   UNL     1       5.361   9.762   2.982  0.00  0.00    +0.172 A 
ATOM     15  C   UNL     1       4.077  10.171   2.639  0.00  0.00    +0.172 A 
ATOM     16  C   UNL     1       5.556   6.815   0.672  0.00  0.00    +0.087 C 
ATOM     17  C   UNL     1       3.206   9.274   2.025  0.00  0.00    +0.041 A 
ATOM     18  C   UNL     1       5.052   7.090  -0.709  0.00  0.00    +0.114 C 
ATOM     19  C   UNL     1       3.909   9.220  -0.608  0.00  0.00    +0.171 C 
BRANCH  14  20
ATOM     20  O   UNL     1       6.291  10.732   3.366  0.00  0.00    -0.468 OA
ATOM     21  C   UNL     1       7.637  10.554   2.994  0.00  0.00    +0.253 C 
ENDBRANCH  14  20
BRANCH  15  22
ATOM     22  O   UNL     1       3.827  11.546   2.560  0.00  0.00    -0.468 OA
ATOM     23  C   UNL     1       2.755  12.144   3.243  0.00  0.00    +0.253 C 
ENDBRANCH  15  22
BRANCH  10  24
ATOM     24  C   UNL     1       1.737   8.363   0.135  0.00  0.00    +0.086 C 
BRANCH  24  25
ATOM     25  C   UNL     1       0.538   7.505   0.411  0.00  0.00    -0.013 A 
ATOM     26  C   UNL     1      -0.603   8.017   1.018  0.00  0.00    +0.036 A 
ATOM     27  C   UNL     1      -1.857   7.445   0.824  0.00  0.00    +0.172 A 
ATOM     28  C   UNL     1      -2.020   6.753  -0.372  0.00  0.00    +0.172 A 
ATOM     29  C   UNL     1      -0.911   6.015  -0.768  0.00  0.00    +0.040 A 
ATOM     30  C   UNL     1       0.339   6.282  -0.218  0.00  0.00    -0.001 A 
BRANCH  28  31
ATOM     31  O   UNL     1      -3.141   6.894  -1.183  0.00  0.00    -0.468 OA
ATOM     32  C   UNL     1      -3.072   6.587  -2.562  0.00  0.00    +0.253 C 
ENDBRANCH  28  31
BRANCH  27  33
ATOM     33  O   UNL     1      -3.007   8.041   1.356  0.00  0.00    -0.468 OA
ATOM     34  C   UNL     1      -3.447   7.653   2.642  0.00  0.00    +0.253 C 
ENDBRANCH  27  33
ENDBRANCH  24  25
ENDBRANCH  10  24
ENDBRANCH   8   9
ENDBRANCH   7   8
ENDBRANCH   5   7
ENDBRANCH   4   5
ENDBRANCH   3   4
ENDBRANCH   2   3
ENDBRANCH   1   2
BRANCH   1  35
ATOM     35  C   UNL     1       3.593   5.144  -7.730  0.00  0.00    +0.048 C 
BRANCH  35  36
ATOM     36  C   UNL     1       2.555   4.151  -8.188  0.00  0.00    +0.208 C 
BRANCH  36  37
ATOM     37  O   UNL     1       2.186   4.301  -9.532  0.00  0.00    -0.448 OA
BRANCH  37  38
ATOM     38  C   UNL     1       0.872   4.532  -9.925  0.00  0.00    +0.323 C 
ATOM     39  O   UNL     1       0.140   5.085  -9.049  0.00  0.00    -0.250 OA
BRANCH  38  40
ATOM     40  C   UNL     1       0.348   4.174 -11.268  0.00  0.00    +0.170 C 
BRANCH  40  41
ATOM     41  C   UNL     1       0.559   5.333 -12.236  0.00  0.00    +0.121 C 
BRANCH  41  43
ATOM     42  C   UNL     1       1.770   5.933 -14.284  0.00  0.00    +0.086 C 
ATOM     43  N   UNL     1       0.780   4.928 -13.550  0.00  0.00    +0.301 N 
ATOM     44  C   UNL     1       1.516   3.671 -13.697  0.00  0.00    +0.171 C 
ATOM     45  C   UNL     1      -0.393   4.824 -14.331  0.00  0.00    +0.114 C 
ATOM     46  C   UNL     1      -0.303   5.285 -15.748  0.00  0.00    +0.087 C 
ATOM     47  C   UNL     1      -0.040   6.756 -15.641  0.00  0.00    -0.012 A 
ATOM     48  C   UNL     1      -0.571   7.686 -16.497  0.00  0.00    +0.036 A 
ATOM     49  C   UNL     1       0.149   8.867 -16.631  0.00  0.00    +0.172 A 
ATOM     50  C   UNL     1       0.934   9.254 -15.552  0.00  0.00    +0.172 A 
ATOM     51  C   UNL     1       1.185   8.372 -14.516  0.00  0.00    +0.041 A 
ATOM     52  C   UNL     1       0.625   7.096 -14.461  0.00  0.00    +0.027 A 
BRANCH  50  53
ATOM     53  O   UNL     1       1.639  10.453 -15.707  0.00  0.00    -0.468 OA
ATOM     54  C   UNL     1       1.098  11.663 -15.182  0.00  0.00    +0.253 C 
ENDBRANCH  50  53
BRANCH  49  55
ATOM     55  O   UNL     1       0.257   9.515 -17.868  0.00  0.00    -0.468 OA
ATOM     56  C   UNL     1      -0.843  10.249 -18.400  0.00  0.00    +0.253 C 
ENDBRANCH  49  55
BRANCH  42  57
ATOM     57  C   UNL     1       2.338   6.617 -12.872  0.00  0.00    +0.086 C 
BRANCH  57  61
ATOM     58  C   UNL     1       6.402   5.494 -12.573  0.00  0.00    +0.172 A 
ATOM     59  C   UNL     1       5.725   5.987 -11.473  0.00  0.00    +0.172 A 
ATOM     60  C   UNL     1       4.355   6.164 -11.588  0.00  0.00    +0.036 A 
ATOM     61  C   UNL     1       3.769   6.263 -12.832  0.00  0.00    -0.013 A 
ATOM     62  C   UNL     1       4.425   5.755 -13.920  0.00  0.00    -0.001 A 
ATOM     63  C   UNL     1       5.777   5.534 -13.814  0.00  0.00    +0.040 A 
BRANCH  58  65
ATOM     64  C   UNL     1       8.663   5.542 -12.511  0.00  0.00    +0.253 C 
ATOM     65  O   UNL     1       7.647   4.933 -12.373  0.00  0.00    -0.468 OA
ENDBRANCH  58  65
BRANCH  59  66
ATOM     66  O   UNL     1       6.433   6.437 -10.374  0.00  0.00    -0.468 OA
ATOM     67  C   UNL     1       6.680   5.543  -9.300  0.00  0.00    +0.253 C 
ENDBRANCH  59  66
ENDBRANCH  57  61
ENDBRANCH  42  57
ENDBRANCH  41  43
ENDBRANCH  40  41
ENDBRANCH  38  40
ENDBRANCH  37  38
ENDBRANCH  36  37
ENDBRANCH  35  36
ENDBRANCH   1  35
TORSDOF 26
ENDMDL
MODEL 9
REMARK VINA RESULT:      -6.4      1.931     12.169
REMARK  Name = 
REMARK  26 active torsions:
REMARK  status: ('A' for Active; 'I' for Inactive)
REMARK    1  A    between atoms: O_2  and  C_3
REMARK    2  A    between atoms: C_6  and  C_7
REMARK    3  A    between atoms: C_7  and  C_8
REMARK    4  A    between atoms: C_11  and  O_12
REMARK    5  A    between atoms: C_14  and  O_15
REMARK    6  A    between atoms: N_21  and  C_23
REMARK    7  A    between atoms: C_23  and  C_24
REMARK    8  A    between atoms: C_24  and  C_25
REMARK    9  A    between atoms: C_25  and  O_27
REMARK   10  A    between atoms: O_27  and  C_28
REMARK   11  A    between atoms: C_28  and  C_29
REMARK   12  A    between atoms: C_29  and  C_30
REMARK   13  A    between atoms: C_30  and  C_31
REMARK   14  A    between atoms: C_31  and  C_32
REMARK   15  A    between atoms: C_32  and  O_33
REMARK   16  A    between atoms: O_33  and  C_34
REMARK   17  A    between atoms: C_34  and  C_36
REMARK   18  A    between atoms: C_36  and  C_37
REMARK   19  A    between atoms: C_37  and  N_38
REMARK   20  A    between atoms: C_44  and  O_45
REMARK   21  A    between atoms: C_47  and  O_48
REMARK   22  A    between atoms: C_52  and  C_53
REMARK   23  A    between atoms: C_53  and  C_54
REMARK   24  A    between atoms: C_57  and  O_58
REMARK   25  A    between atoms: C_60  and  O_61
REMARK   26  A    between atoms: C_65  and  O_66
REMARK                            x       y       z     vdW  Elec       q    Type
REMARK                         _______ _______ _______ _____ _____    ______ ____
ROOT
ATOM      1  C   UNL     1      -1.108   5.764  -2.168  0.00  0.00    +0.008 C 
ENDROOT
BRANCH   1   2
ATOM      2  C   UNL     1       0.334   5.792  -2.663  0.00  0.00    +0.048 C 
BRANCH   2   3
ATOM      3  C   UNL     1       0.353   4.972  -3.912  0.00  0.00    +0.208 C 
BRANCH   3   4
ATOM      4  O   UNL     1      -0.356   5.565  -4.991  0.00  0.00    -0.448 OA
BRANCH   4   5
ATOM      5  C   UNL     1      -0.153   5.068  -6.283  0.00  0.00    +0.323 C 
ATOM      6  O   UNL     1      -1.211   5.001  -6.981  0.00  0.00    -0.250 OA
BRANCH   5   7
ATOM      7  C   UNL     1       1.179   4.673  -6.804  0.00  0.00    +0.170 C 
BRANCH   7   8
ATOM      8  C   UNL     1       1.191   4.555  -8.321  0.00  0.00    +0.121 C 
BRANCH   8   9
ATOM      9  N   UNL     1       2.263   5.381  -8.823  0.00  0.00    +0.301 N 
ATOM     10  C   UNL     1       1.612   6.196 -10.034  0.00  0.00    +0.086 C 
ATOM     11  C   UNL     1       3.067   6.521 -10.689  0.00  0.00    +0.027 A 
ATOM     12  C   UNL     1       3.827   7.375  -9.915  0.00  0.00    -0.012 A 
ATOM     13  C   UNL     1       5.143   7.558 -10.257  0.00  0.00    +0.036 A 
ATOM     14  C   UNL     1       5.641   6.916 -11.384  0.00  0.00    +0.172 A 
ATOM     15  C   UNL     1       4.872   5.947 -12.018  0.00  0.00    +0.172 A 
ATOM     16  C   UNL     1       3.289   7.610  -8.547  0.00  0.00    +0.087 C 
ATOM     17  C   UNL     1       3.505   5.870 -11.761  0.00  0.00    +0.041 A 
ATOM     18  C   UNL     1       2.716   6.381  -7.918  0.00  0.00    +0.114 C 
ATOM     19  C   UNL     1       3.256   4.541  -9.394  0.00  0.00    +0.171 C 
BRANCH  14  20
ATOM     20  O   UNL     1       7.034   6.821 -11.463  0.00  0.00    -0.468 OA
ATOM     21  C   UNL     1       7.761   6.638 -10.271  0.00  0.00    +0.253 C 
ENDBRANCH  14  20
BRANCH  15  22
ATOM     22  O   UNL     1       5.535   4.850 -12.582  0.00  0.00    -0.468 OA
ATOM     23  C   UNL     1       6.448   5.000 -13.639  0.00  0.00    +0.253 C 
ENDBRANCH  15  22
BRANCH  10  24
ATOM     24  C   UNL     1       1.344   4.794 -10.905  0.00  0.00    +0.086 C 
BRANCH  24  25
ATOM     25  C   UNL     1       0.727   5.377 -12.141  0.00  0.00    -0.013 A 
ATOM     26  C   UNL     1       0.657   6.751 -12.345  0.00  0.00    +0.036 A 
ATOM     27  C   UNL     1       0.591   7.301 -13.623  0.00  0.00    +0.172 A 
ATOM     28  C   UNL     1       1.146   6.527 -14.636  0.00  0.00    +0.172 A 
ATOM     29  C   UNL     1       0.917   5.162 -14.514  0.00  0.00    +0.040 A 
ATOM     30  C   UNL     1       0.518   4.627 -13.293  0.00  0.00    -0.001 A 
BRANCH  28  31
ATOM     31  O   UNL     1       1.984   7.048 -15.616  0.00  0.00    -0.468 OA
ATOM     32  C   UNL     1       3.383   6.854 -15.543  0.00  0.00    +0.253 C 
ENDBRANCH  28  31
BRANCH  27  33
ATOM     33  O   UNL     1       0.632   8.687 -13.809  0.00  0.00    -0.468 OA
ATOM     34  C   UNL     1       0.568   9.206 -15.122  0.00  0.00    +0.253 C 
ENDBRANCH  27  33
ENDBRANCH  24  25
ENDBRANCH  10  24
ENDBRANCH   8   9
ENDBRANCH   7   8
ENDBRANCH   5   7
ENDBRANCH   4   5
ENDBRANCH   3   4
ENDBRANCH   2   3
ENDBRANCH   1   2
BRANCH   1  35
ATOM     35  C   UNL     1      -1.224   6.169  -0.725  0.00  0.00    +0.048 C 
BRANCH  35  36
ATOM     36  C   UNL     1       0.026   6.814  -0.181  0.00  0.00    +0.208 C 
BRANCH  36  37
ATOM     37  O   UNL     1      -0.078   7.201   1.162  0.00  0.00    -0.448 OA
BRANCH  37  38
ATOM     38  C   UNL     1       0.069   8.521   1.573  0.00  0.00    +0.323 C 
ATOM     39  O   UNL     1      -0.674   9.357   0.973  0.00  0.00    -0.250 OA
BRANCH  38  40
ATOM     40  C   UNL     1       1.016   8.943   2.638  0.00  0.00    +0.170 C 
BRANCH  40  41
ATOM     41  C   UNL     1       2.050   9.906   2.065  0.00  0.00    +0.121 C 
BRANCH  41  43
ATOM     42  C   UNL     1       4.118   9.673   0.764  0.00  0.00    +0.086 C 
ATOM     43  N   UNL     1       3.357   9.428   2.139  0.00  0.00    +0.301 N 
ATOM     44  C   UNL     1       4.231  10.155   3.062  0.00  0.00    +0.171 C 
ATOM     45  C   UNL     1       3.456   8.056   2.455  0.00  0.00    +0.114 C 
ATOM     46  C   UNL     1       4.511   7.274   1.741  0.00  0.00    +0.087 C 
ATOM     47  C   UNL     1       4.085   7.310   0.305  0.00  0.00    -0.012 A 
ATOM     48  C   UNL     1       4.231   6.253  -0.556  0.00  0.00    +0.036 A 
ATOM     49  C   UNL     1       4.317   6.578  -1.905  0.00  0.00    +0.172 A 
ATOM     50  C   UNL     1       3.695   7.751  -2.313  0.00  0.00    +0.172 A 
ATOM     51  C   UNL     1       3.252   8.670  -1.379  0.00  0.00    +0.041 A 
ATOM     52  C   UNL     1       3.339   8.448  -0.004  0.00  0.00    +0.027 A 
BRANCH  50  53
ATOM     53  O   UNL     1       3.785   8.049  -3.677  0.00  0.00    -0.468 OA
ATOM     54  C   UNL     1       2.980   7.332  -4.610  0.00  0.00    +0.253 C 
ENDBRANCH  50  53
BRANCH  49  55
ATOM     55  O   UNL     1       5.173   5.880  -2.766  0.00  0.00    -0.468 OA
ATOM     56  C   UNL     1       4.725   4.706  -3.439  0.00  0.00    +0.253 C 
ENDBRANCH  49  55
BRANCH  42  57
ATOM     57  C   UNL     1       3.026  10.804   0.205  0.00  0.00    +0.086 C 
BRANCH  57  61
ATOM     58  C   UNL     1       5.565  14.016  -0.842  0.00  0.00    +0.172 A 
ATOM     59  C   UNL     1       5.624  13.455   0.421  0.00  0.00    +0.172 A 
ATOM     60  C   UNL     1       4.900  12.294   0.642  0.00  0.00    +0.036 A 
ATOM     61  C   UNL     1       3.851  11.959  -0.190  0.00  0.00    -0.013 A 
ATOM     62  C   UNL     1       3.803  12.495  -1.448  0.00  0.00    -0.001 A 
ATOM     63  C   UNL     1       4.546  13.623  -1.700  0.00  0.00    +0.040 A 
BRANCH  58  65
ATOM     64  C   UNL     1       6.858  15.110  -2.343  0.00  0.00    +0.253 C 
ATOM     65  O   UNL     1       6.560  14.901  -1.207  0.00  0.00    -0.468 OA
ENDBRANCH  58  65
BRANCH  59  66
ATOM     66  O   UNL     1       6.250  14.136   1.448  0.00  0.00    -0.468 OA
ATOM     67  C   UNL     1       5.469  14.947   2.313  0.00  0.00    +0.253 C 
ENDBRANCH  59  66
ENDBRANCH  57  61
ENDBRANCH  42  57
ENDBRANCH  41  43
ENDBRANCH  40  41
ENDBRANCH  38  40
ENDBRANCH  37  38
ENDBRANCH  36  37
ENDBRANCH  35  36
ENDBRANCH   1  35
TORSDOF 26
ENDMDL
