MODEL 1
REMARK VINA RESULT:      16.5      0.000      0.000
REMARK  Name = 
REMARK  9 active torsions:
REMARK  status: ('A' for Active; 'I' for Inactive)
REMARK    1  A    between atoms: O_2  and  C_3
REMARK    2  A    between atoms: C_5  and  C_6
REMARK    3  A    between atoms: C_6  and  C_7
REMARK    4  A    between atoms: C_7  and  C_9
REMARK    5  A    between atoms: C_20  and  O_21
REMARK    6  A    between atoms: C_37  and  O_38
REMARK    7  A    between atoms: C_64  and  O_65
REMARK    8  A    between atoms: O_65  and  C_66
REMARK    9  A    between atoms: C_66  and  C_67
REMARK                            x       y       z     vdW  Elec       q    Type
REMARK                         _______ _______ _______ _____ _____    ______ ____
ROOT
ATOM      1  C   UNL     1       4.286   8.906  -1.467  0.00  0.00    +0.176 C 
ATOM      2  O   UNL     1       5.276   7.807  -1.830  0.00  0.00    -0.451 OA
ATOM      3  C   UNL     1       5.282   7.498  -3.114  0.00  0.00    +0.335 C 
ATOM      4  O   UNL     1       6.296   7.181  -3.807  0.00  0.00    -0.248 OA
ATOM      5  C   UNL     1       3.919   7.350  -3.957  0.00  0.00    +0.175 C 
ATOM      6  N   UNL     1       3.972   5.778  -3.858  0.00  0.00    -0.265 N 
ATOM      7  C   UNL     1       3.892   5.190  -2.577  0.00  0.00    +0.094 C 
ATOM      8  C   UNL     1       2.419   5.175  -2.182  0.00  0.00    +0.022 C 
ATOM      9  C   UNL     1       1.841   6.433  -2.827  0.00  0.00    +0.004 C 
ATOM     10  C   UNL     1       4.647   5.316  -4.995  0.00  0.00    +0.289 C 
ATOM     11  O   UNL     1       5.177   4.185  -4.913  0.00  0.00    -0.267 OA
ATOM     12  C   UNL     1       4.438   6.073  -6.246  0.00  0.00    +0.279 C 
ATOM     13  O   UNL     1       5.066   5.439  -7.169  0.00  0.00    -0.281 OA
ATOM     14  C   UNL     1       3.211   6.813  -6.483  0.00  0.00    +0.279 C 
ATOM     15  O   UNL     1       2.206   5.829  -6.602  0.00  0.00    -0.329 OA
ATOM     16  C   UNL     1       0.891   6.582  -6.566  0.00  0.00    +0.121 C 
ATOM     17  C   UNL     1       0.957   6.930  -8.175  0.00  0.00    +0.030 C 
ATOM     18  C   UNL     1       2.073   7.876  -8.382  0.00  0.00    +0.008 C 
ATOM     19  C   UNL     1       0.010   5.229  -6.883  0.00  0.00    +0.063 C 
ATOM     20  C   UNL     1       0.318   4.333  -5.537  0.00  0.00    +0.136 C 
ATOM     21  C   UNL     1      -0.596   5.301  -4.604  0.00  0.00    -0.017 C 
ATOM     22  C   UNL     1       0.472   6.017  -3.805  0.00  0.00    +0.029 C 
ATOM     23  C   UNL     1      -1.511   4.712  -3.879  0.00  0.00    -0.006 C 
ATOM     24  C   UNL     1      -2.959   4.893  -4.066  0.00  0.00    -0.001 C 
ATOM     25  C   UNL     1      -3.386   5.949  -4.763  0.00  0.00    -0.000 C 
ATOM     26  C   UNL     1      -3.654   7.122  -3.920  0.00  0.00    -0.005 C 
ATOM     27  C   UNL     1      -4.330   7.056  -2.806  0.00  0.00    -0.026 C 
ATOM     28  C   UNL     1      -3.533   6.556  -1.508  0.00  0.00    +0.022 C 
ATOM     29  C   UNL     1      -2.377   7.705  -1.673  0.00  0.00    +0.005 C 
ATOM     30  C   UNL     1      -4.400   7.498  -0.510  0.00  0.00    +0.012 C 
ATOM     31  C   UNL     1      -4.099   6.922   0.986  0.00  0.00    +0.061 C 
ATOM     32  C   UNL     1      -2.814   5.979   0.620  0.00  0.00    +0.008 C 
ATOM     33  C   UNL     1      -3.193   8.195   1.355  0.00  0.00    +0.180 C 
ATOM     34  O   UNL     1      -3.708   9.245   1.441  0.00  0.00    -0.293 OA
ATOM     35  C   UNL     1      -2.008   7.783   2.354  0.00  0.00    +0.206 C 
ATOM     36  C   UNL     1      -1.082   9.171   1.913  0.00  0.00    +0.204 C 
ATOM     37  O   UNL     1      -0.946   8.665   0.495  0.00  0.00    -0.216 OA
ATOM     38  C   UNL     1       0.287   8.483   2.391  0.00  0.00    -0.015 C 
ATOM     39  C   UNL     1       0.267   7.845   3.747  0.00  0.00    +0.029 C 
ATOM     40  C   UNL     1       1.313   8.398   1.690  0.00  0.00    -0.025 C 
ATOM     41  C   UNL     1       1.655   9.374   0.468  0.00  0.00    +0.079 C 
ATOM     42  C   UNL     1       1.462  10.744   1.346  0.00  0.00    +0.012 C 
ATOM     43  C   UNL     1       3.238   9.301   0.745  0.00  0.00    +0.158 C 
ATOM     44  O   UNL     1       3.628   9.469   1.868  0.00  0.00    -0.296 OA
ATOM     45  O   UNL     1       2.860   8.020  -6.192  0.00  0.00    -0.187 OA
ATOM     46  C   UNL     1       3.428   7.018  -8.107  0.00  0.00    +0.062 C 
ATOM     47  C   UNL     1       4.361   8.348  -7.971  0.00  0.00    +0.006 C 
ATOM     48  C   UNL     1       2.876   7.483  -2.698  0.00  0.00    +0.031 C 
ATOM     49  C   UNL     1       3.943   8.215  -0.013  0.00  0.00    +0.108 C 
ENDROOT
BRANCH  35  50
ATOM     50  O   UNL     1      -2.604   8.500   3.541  0.00  0.00    -0.343 OA
ATOM     51  C   UNL     1      -3.743   7.704   3.750  0.00  0.00    +0.175 C 
ENDBRANCH  35  50
BRANCH   1  52
ATOM     52  C   UNL     1       5.375   9.939  -0.653  0.00  0.00    +0.041 C 
ATOM     53  C   UNL     1       4.981   9.335   0.795  0.00  0.00    +0.004 C 
BRANCH  52  54
ATOM     54  C   UNL     1       4.426  11.245  -0.503  0.00  0.00    +0.004 C 
BRANCH  54  59
ATOM     55  C   UNL     1       5.801  13.931  -0.820  0.00  0.00    +0.142 C 
ATOM     56  C   UNL     1       5.785  14.969   0.570  0.00  0.00    +0.142 C 
ATOM     57  C   UNL     1       5.258  13.909   1.676  0.00  0.00    +0.032 C 
ATOM     58  C   UNL     1       4.248  13.012   1.208  0.00  0.00    +0.003 C 
ATOM     59  C   UNL     1       5.263  11.792   0.799  0.00  0.00    +0.003 C 
ATOM     60  C   UNL     1       6.320  12.597  -0.087  0.00  0.00    +0.032 C 
BRANCH  55  62
ATOM     61  C   UNL     1       3.914  13.937  -1.870  0.00  0.00    +0.174 C 
ATOM     62  O   UNL     1       4.305  13.710  -0.873  0.00  0.00    -0.351 OA
ENDBRANCH  55  62
BRANCH  56  63
ATOM     63  O   UNL     1       7.227  14.636   0.876  0.00  0.00    -0.351 OA
BRANCH  63  64
ATOM     64  C   UNL     1       7.600  15.319   1.992  0.00  0.00    +0.178 C 
BRANCH  64  65
ATOM     65  C   UNL     1       9.081  15.558   1.942  0.00  0.00    +0.214 C 
ATOM     66  O   UNL     1       9.696  14.350   2.306  0.00  0.00    -0.218 OA
ENDBRANCH  64  65
ENDBRANCH  63  64
ENDBRANCH  56  63
ENDBRANCH  54  59
ENDBRANCH  52  54
ENDBRANCH   1  52
BRANCH  20  67
ATOM     67  O   UNL     1      -0.826   3.389  -5.876  0.00  0.00    -0.349 OA
ATOM     68  C   UNL     1      -1.398   3.958  -7.016  0.00  0.00    +0.174 C 
ENDBRANCH  20  67
TORSDOF 9
ENDMDL
MODEL 2
REMARK VINA RESULT:      18.6      2.801      8.434
REMARK  Name = 
REMARK  9 active torsions:
REMARK  status: ('A' for Active; 'I' for Inactive)
REMARK    1  A    between atoms: O_2  and  C_3
REMARK    2  A    between atoms: C_5  and  C_6
REMARK    3  A    between atoms: C_6  and  C_7
REMARK    4  A    between atoms: C_7  and  C_9
REMARK    5  A    between atoms: C_20  and  O_21
REMARK    6  A    between atoms: C_37  and  O_38
REMARK    7  A    between atoms: C_64  and  O_65
REMARK    8  A    between atoms: O_65  and  C_66
REMARK    9  A    between atoms: C_66  and  C_67
REMARK                            x       y       z     vdW  Elec       q    Type
REMARK                         _______ _______ _______ _____ _____    ______ ____
ROOT
ATOM      1  C   UNL     1       3.170   5.944  -4.444  0.00  0.00    +0.176 C 
ATOM      2  O   UNL     1       2.428   4.637  -4.690  0.00  0.00    -0.451 OA
ATOM      3  C   UNL     1       1.159   4.798  -5.018  0.00  0.00    +0.335 C 
ATOM      4  O   UNL     1       0.502   4.100  -5.849  0.00  0.00    -0.248 OA
ATOM      5  C   UNL     1       0.218   5.865  -4.264  0.00  0.00    +0.175 C 
ATOM      6  N   UNL     1      -0.437   4.736  -3.382  0.00  0.00    -0.265 N 
ATOM      7  C   UNL     1       0.396   4.017  -2.497  0.00  0.00    +0.094 C 
ATOM      8  C   UNL     1       0.590   4.887  -1.259  0.00  0.00    +0.022 C 
ATOM      9  C   UNL     1       0.566   6.318  -1.793  0.00  0.00    +0.004 C 
ATOM     10  C   UNL     1      -1.584   4.298  -4.055  0.00  0.00    +0.289 C 
ATOM     11  O   UNL     1      -1.997   3.150  -3.776  0.00  0.00    -0.267 OA
ATOM     12  C   UNL     1      -2.340   5.317  -4.813  0.00  0.00    +0.279 C 
ATOM     13  O   UNL     1      -3.386   4.732  -5.273  0.00  0.00    -0.281 OA
ATOM     14  C   UNL     1      -2.316   6.716  -4.424  0.00  0.00    +0.279 C 
ATOM     15  O   UNL     1      -2.986   6.763  -3.182  0.00  0.00    -0.329 OA
ATOM     16  C   UNL     1      -2.726   8.150  -2.630  0.00  0.00    +0.121 C 
ATOM     17  C   UNL     1      -3.962   8.811  -3.497  0.00  0.00    +0.030 C 
ATOM     18  C   UNL     1      -3.585   8.758  -4.924  0.00  0.00    +0.008 C 
ATOM     19  C   UNL     1      -3.732   7.922  -1.348  0.00  0.00    +0.063 C 
ATOM     20  C   UNL     1      -2.950   6.714  -0.549  0.00  0.00    +0.136 C 
ATOM     21  C   UNL     1      -1.765   7.715  -0.064  0.00  0.00    -0.017 C 
ATOM     22  C   UNL     1      -0.621   7.246  -0.937  0.00  0.00    +0.029 C 
ATOM     23  C   UNL     1      -1.500   7.723   1.217  0.00  0.00    -0.006 C 
ATOM     24  C   UNL     1      -1.720   8.877   2.101  0.00  0.00    -0.001 C 
ATOM     25  C   UNL     1      -1.870  10.084   1.550  0.00  0.00    -0.000 C 
ATOM     26  C   UNL     1      -0.603  10.814   1.412  0.00  0.00    -0.005 C 
ATOM     27  C   UNL     1       0.274  10.901   2.375  0.00  0.00    -0.026 C 
ATOM     28  C   UNL     1       1.251   9.645   2.576  0.00  0.00    +0.022 C 
ATOM     29  C   UNL     1       1.766   9.691   1.022  0.00  0.00    +0.005 C 
ATOM     30  C   UNL     1       2.486  10.578   3.067  0.00  0.00    +0.012 C 
ATOM     31  C   UNL     1       3.550   9.549   3.750  0.00  0.00    +0.061 C 
ATOM     32  C   UNL     1       2.909   8.148   3.199  0.00  0.00    +0.008 C 
ATOM     33  C   UNL     1       4.567   9.691   2.515  0.00  0.00    +0.180 C 
ATOM     34  O   UNL     1       5.089  10.725   2.335  0.00  0.00    -0.293 OA
ATOM     35  C   UNL     1       5.361   8.320   2.267  0.00  0.00    +0.206 C 
ATOM     36  C   UNL     1       5.725   8.763   0.639  0.00  0.00    +0.204 C 
ATOM     37  O   UNL     1       4.258   8.742   0.275  0.00  0.00    -0.216 OA
ATOM     38  C   UNL     1       5.951   7.233   0.210  0.00  0.00    -0.015 C 
ATOM     39  C   UNL     1       6.832   6.419   1.108  0.00  0.00    +0.029 C 
ATOM     40  C   UNL     1       5.398   6.687  -0.763  0.00  0.00    -0.025 C 
ATOM     41  C   UNL     1       4.826   7.474  -2.035  0.00  0.00    +0.079 C 
ATOM     42  C   UNL     1       6.226   8.276  -2.324  0.00  0.00    +0.012 C 
ATOM     43  C   UNL     1       5.190   6.274  -3.044  0.00  0.00    +0.158 C 
ATOM     44  O   UNL     1       6.290   5.798  -2.988  0.00  0.00    -0.296 OA
ATOM     45  O   UNL     1      -1.523   7.686  -4.733  0.00  0.00    -0.187 OA
ATOM     46  C   UNL     1      -3.618   7.182  -5.326  0.00  0.00    +0.062 C 
ATOM     47  C   UNL     1      -2.776   7.413  -6.702  0.00  0.00    +0.006 C 
ATOM     48  C   UNL     1       1.279   6.292  -3.090  0.00  0.00    +0.031 C 
ATOM     49  C   UNL     1       4.080   5.284  -3.242  0.00  0.00    +0.108 C 
ENDROOT
BRANCH  35  50
ATOM     50  O   UNL     1       6.681   8.862   2.759  0.00  0.00    -0.343 OA
ATOM     51  C   UNL     1       6.974   7.907   3.748  0.00  0.00    +0.175 C 
ENDBRANCH  35  50
BRANCH   1  52
ATOM     52  C   UNL     1       4.479   5.671  -5.505  0.00  0.00    +0.041 C 
ATOM     53  C   UNL     1       4.662   7.250  -5.807  0.00  0.00    +0.004 C 
BRANCH  52  54
ATOM     54  C   UNL     1       3.649   5.381  -6.867  0.00  0.00    +0.004 C 
BRANCH  54  59
ATOM     55  C   UNL     1       4.079   4.420  -9.713  0.00  0.00    +0.142 C 
ATOM     56  C   UNL     1       4.259   5.653 -10.920  0.00  0.00    +0.142 C 
ATOM     57  C   UNL     1       4.433   6.939  -9.948  0.00  0.00    +0.032 C 
ATOM     58  C   UNL     1       3.599   6.928  -8.788  0.00  0.00    +0.003 C 
ATOM     59  C   UNL     1       4.699   6.254  -7.779  0.00  0.00    +0.003 C 
ATOM     60  C   UNL     1       5.146   4.996  -8.655  0.00  0.00    +0.032 C 
BRANCH  55  62
ATOM     61  C   UNL     1       1.976   4.183  -9.285  0.00  0.00    +0.174 C 
ATOM     62  O   UNL     1       2.767   4.929  -9.157  0.00  0.00    -0.351 OA
ENDBRANCH  55  62
BRANCH  56  63
ATOM     63  O   UNL     1       5.754   5.434 -10.967  0.00  0.00    -0.351 OA
BRANCH  63  64
ATOM     64  C   UNL     1       6.300   6.361 -11.802  0.00  0.00    +0.178 C 
BRANCH  64  65
ATOM     65  C   UNL     1       7.634   5.863 -12.273  0.00  0.00    +0.214 C 
ATOM     66  O   UNL     1       7.386   4.721 -13.050  0.00  0.00    -0.218 OA
ENDBRANCH  64  65
ENDBRANCH  63  64
ENDBRANCH  56  63
ENDBRANCH  54  59
ENDBRANCH  52  54
ENDBRANCH   1  52
BRANCH  20  67
ATOM     67  O   UNL     1      -3.807   6.946   0.687  0.00  0.00    -0.349 OA
ATOM     68  C   UNL     1      -3.220   6.128   1.655  0.00  0.00    +0.174 C 
ENDBRANCH  20  67
TORSDOF 9
ENDMDL
