MODEL 1
REMARK VINA RESULT:      -7.0      0.000      0.000
REMARK  Name = 
REMARK  5 active torsions:
REMARK  status: ('A' for Active; 'I' for Inactive)
REMARK    1  A    between atoms: C_2  and  C_3
REMARK    2  A    between atoms: C_5  and  N_6
REMARK    3  A    between atoms: C_7  and  C_9
REMARK    4  A    between atoms: C_14  and  N_15
REMARK    5  A    between atoms: C_16  and  C_18
REMARK                            x       y       z     vdW  Elec       q    Type
REMARK                         _______ _______ _______ _____ _____    ______ ____
ROOT
ATOM      1  C   UNL     1       1.340   6.161 -10.411  0.00  0.00    +0.071 A 
ATOM      2  C   UNL     1       2.502   6.196 -11.154  0.00  0.00    +0.028 A 
ATOM      3  C   UNL     1       3.663   5.672 -10.631  0.00  0.00    +0.086 A 
ATOM      4  C   UNL     1       3.706   5.306  -9.289  0.00  0.00    +0.088 A 
ATOM      5 CL   UNL     1       5.265   4.939  -8.568  0.00  0.00    -0.080 Cl
ATOM      6  C   UNL     1       2.566   5.340  -8.493  0.00  0.00    +0.086 A 
ATOM      7  C   UNL     1       1.376   5.597  -9.162  0.00  0.00    +0.028 A 
ENDROOT
BRANCH   3   8
ATOM      8  N   UNL     1       4.714   5.267 -11.517  0.00  0.00    -0.169 NA
ATOM      9  C   UNL     1       5.904   6.037 -11.628  0.00  0.00    +0.349 C 
ATOM     10  O   UNL     1       5.828   7.290 -11.450  0.00  0.00    -0.261 OA
BRANCH   9  11
ATOM     11  C   UNL     1       7.233   5.431 -11.752  0.00  0.00    +0.442 C 
ATOM     12  O   UNL     1       7.603   4.624 -12.807  0.00  0.00    -0.235 OA
ATOM     13  O   UNL     1       8.103   5.779 -10.907  0.00  0.00    -0.235 OA
ENDBRANCH   9  11
ENDBRANCH   3   8
BRANCH   6  14
ATOM     14  N   UNL     1       2.726   5.592  -7.093  0.00  0.00    -0.169 NA
ATOM     15  C   UNL     1       3.024   6.898  -6.593  0.00  0.00    +0.349 C 
ATOM     16  O   UNL     1       2.571   7.872  -7.243  0.00  0.00    -0.261 OA
BRANCH  15  17
ATOM     17  C   UNL     1       3.703   7.109  -5.310  0.00  0.00    +0.442 C 
ATOM     18  O   UNL     1       2.989   7.299  -4.126  0.00  0.00    -0.235 OA
ATOM     19  O   UNL     1       4.818   6.521  -5.181  0.00  0.00    -0.235 OA
ENDBRANCH  15  17
ENDBRANCH   6  14
BRANCH   1  21
ATOM     20  N   UNL     1      -0.453   7.708 -11.443  0.00  0.00    -0.191 NA
ATOM     21  C   UNL     1       0.235   6.935 -10.912  0.00  0.00    +0.100 C 
ENDBRANCH   1  21
TORSDOF 5
ENDMDL
MODEL 2
REMARK VINA RESULT:      -6.9      1.444      1.619
REMARK  Name = 
REMARK  5 active torsions:
REMARK  status: ('A' for Active; 'I' for Inactive)
REMARK    1  A    between atoms: C_2  and  C_3
REMARK    2  A    between atoms: C_5  and  N_6
REMARK    3  A    between atoms: C_7  and  C_9
REMARK    4  A    between atoms: C_14  and  N_15
REMARK    5  A    between atoms: C_16  and  C_18
REMARK                            x       y       z     vdW  Elec       q    Type
REMARK                         _______ _______ _______ _____ _____    ______ ____
ROOT
ATOM      1  C   UNL     1       1.347   6.134 -10.538  0.00  0.00    +0.071 A 
ATOM      2  C   UNL     1       2.524   6.153 -11.259  0.00  0.00    +0.028 A 
ATOM      3  C   UNL     1       3.674   5.639 -10.703  0.00  0.00    +0.086 A 
ATOM      4  C   UNL     1       3.690   5.299  -9.354  0.00  0.00    +0.088 A 
ATOM      5 CL   UNL     1       5.234   4.944  -8.596  0.00  0.00    -0.080 Cl
ATOM      6  C   UNL     1       2.535   5.348  -8.581  0.00  0.00    +0.086 A 
ATOM      7  C   UNL     1       1.358   5.593  -9.278  0.00  0.00    +0.028 A 
ENDROOT
BRANCH   3   8
ATOM      8  N   UNL     1       4.741   5.216 -11.560  0.00  0.00    -0.169 NA
ATOM      9  C   UNL     1       5.930   5.988 -11.670  0.00  0.00    +0.349 C 
ATOM     10  O   UNL     1       5.846   7.245 -11.525  0.00  0.00    -0.261 OA
BRANCH   9  11
ATOM     11  C   UNL     1       7.264   5.385 -11.756  0.00  0.00    +0.442 C 
ATOM     12  O   UNL     1       7.687   4.632 -12.831  0.00  0.00    -0.235 OA
ATOM     13  O   UNL     1       8.089   5.685 -10.850  0.00  0.00    -0.235 OA
ENDBRANCH   9  11
ENDBRANCH   3   8
BRANCH   6  14
ATOM     14  N   UNL     1       2.667   5.627  -7.183  0.00  0.00    -0.169 NA
ATOM     15  C   UNL     1       2.120   4.758  -6.188  0.00  0.00    +0.349 C 
ATOM     16  O   UNL     1       2.072   3.535  -6.466  0.00  0.00    -0.261 OA
BRANCH  15  17
ATOM     17  C   UNL     1       1.759   5.233  -4.848  0.00  0.00    +0.442 C 
ATOM     18  O   UNL     1       2.344   6.373  -4.292  0.00  0.00    -0.235 OA
ATOM     19  O   UNL     1       0.562   5.014  -4.497  0.00  0.00    -0.235 OA
ENDBRANCH  15  17
ENDBRANCH   6  14
BRANCH   1  21
ATOM     20  N   UNL     1      -0.487   7.734 -11.401  0.00  0.00    -0.191 NA
ATOM     21  C   UNL     1       0.253   6.898 -11.075  0.00  0.00    +0.100 C 
ENDBRANCH   1  21
TORSDOF 5
ENDMDL
MODEL 3
REMARK VINA RESULT:      -6.9      3.888      5.737
REMARK  Name = 
REMARK  5 active torsions:
REMARK  status: ('A' for Active; 'I' for Inactive)
REMARK    1  A    between atoms: C_2  and  C_3
REMARK    2  A    between atoms: C_5  and  N_6
REMARK    3  A    between atoms: C_7  and  C_9
REMARK    4  A    between atoms: C_14  and  N_15
REMARK    5  A    between atoms: C_16  and  C_18
REMARK                            x       y       z     vdW  Elec       q    Type
REMARK                         _______ _______ _______ _____ _____    ______ ____
ROOT
ATOM      1  C   UNL     1       3.196   7.013  -5.461  0.00  0.00    +0.071 A 
ATOM      2  C   UNL     1       3.164   6.724  -6.811  0.00  0.00    +0.028 A 
ATOM      3  C   UNL     1       1.970   6.382  -7.407  0.00  0.00    +0.086 A 
ATOM      4  C   UNL     1       0.856   6.127  -6.614  0.00  0.00    +0.088 A 
ATOM      5 CL   UNL     1      -0.556   5.396  -7.360  0.00  0.00    -0.080 Cl
ATOM      6  C   UNL     1       0.884   6.331  -5.239  0.00  0.00    +0.086 A 
ATOM      7  C   UNL     1       2.025   6.954  -4.749  0.00  0.00    +0.028 A 
ENDROOT
BRANCH   3   8
ATOM      8  N   UNL     1       1.818   6.549  -8.822  0.00  0.00    -0.169 NA
ATOM      9  C   UNL     1       1.956   5.440  -9.701  0.00  0.00    +0.349 C 
ATOM     10  O   UNL     1       2.745   4.505  -9.369  0.00  0.00    -0.261 OA
BRANCH   9  11
ATOM     11  C   UNL     1       1.093   5.241 -10.870  0.00  0.00    +0.442 C 
ATOM     12  O   UNL     1       0.031   4.363 -10.887  0.00  0.00    -0.235 OA
ATOM     13  O   UNL     1       1.273   6.011 -11.853  0.00  0.00    -0.235 OA
ENDBRANCH   9  11
ENDBRANCH   3   8
BRANCH   6  14
ATOM     14  N   UNL     1       0.049   5.510  -4.416  0.00  0.00    -0.169 NA
ATOM     15  C   UNL     1      -1.038   6.057  -3.665  0.00  0.00    +0.349 C 
ATOM     16  O   UNL     1      -1.620   7.056  -4.154  0.00  0.00    -0.261 OA
BRANCH  15  17
ATOM     17  C   UNL     1      -1.554   5.413  -2.452  0.00  0.00    +0.442 C 
ATOM     18  O   UNL     1      -2.775   4.737  -2.444  0.00  0.00    -0.235 OA
ATOM     19  O   UNL     1      -0.675   4.951  -1.665  0.00  0.00    -0.235 OA
ENDBRANCH  15  17
ENDBRANCH   6  14
BRANCH   1  21
ATOM     20  N   UNL     1       5.424   7.409  -4.218  0.00  0.00    -0.191 NA
ATOM     21  C   UNL     1       4.498   7.122  -4.860  0.00  0.00    +0.100 C 
ENDBRANCH   1  21
TORSDOF 5
ENDMDL
MODEL 4
REMARK VINA RESULT:      -6.7      1.853      6.077
REMARK  Name = 
REMARK  5 active torsions:
REMARK  status: ('A' for Active; 'I' for Inactive)
REMARK    1  A    between atoms: C_2  and  C_3
REMARK    2  A    between atoms: C_5  and  N_6
REMARK    3  A    between atoms: C_7  and  C_9
REMARK    4  A    between atoms: C_14  and  N_15
REMARK    5  A    between atoms: C_16  and  C_18
REMARK                            x       y       z     vdW  Elec       q    Type
REMARK                         _______ _______ _______ _____ _____    ______ ____
ROOT
ATOM      1  C   UNL     1       2.382   5.798 -11.507  0.00  0.00    +0.071 A 
ATOM      2  C   UNL     1       1.973   5.415 -10.245  0.00  0.00    +0.028 A 
ATOM      3  C   UNL     1       2.878   5.410  -9.207  0.00  0.00    +0.086 A 
ATOM      4  C   UNL     1       4.231   5.585  -9.476  0.00  0.00    +0.088 A 
ATOM      5 CL   UNL     1       5.390   5.266  -8.196  0.00  0.00    -0.080 Cl
ATOM      6  C   UNL     1       4.681   5.890 -10.756  0.00  0.00    +0.086 A 
ATOM      7  C   UNL     1       3.690   6.169 -11.689  0.00  0.00    +0.028 A 
ENDROOT
BRANCH   3   8
ATOM      8  N   UNL     1       2.400   5.491  -7.858  0.00  0.00    -0.169 NA
ATOM      9  C   UNL     1       1.632   6.607  -7.428  0.00  0.00    +0.349 C 
ATOM     10  O   UNL     1       1.850   7.732  -7.970  0.00  0.00    -0.261 OA
BRANCH   9  11
ATOM     11  C   UNL     1       0.481   6.480  -6.528  0.00  0.00    +0.442 C 
ATOM     12  O   UNL     1       0.331   7.227  -5.380  0.00  0.00    -0.235 OA
ATOM     13  O   UNL     1      -0.465   5.736  -6.908  0.00  0.00    -0.235 OA
ENDBRANCH   9  11
ENDBRANCH   3   8
BRANCH   6  14
ATOM     14  N   UNL     1       5.987   5.446 -11.138  0.00  0.00    -0.169 NA
ATOM     15  C   UNL     1       6.918   6.317 -11.785  0.00  0.00    +0.349 C 
ATOM     16  O   UNL     1       6.856   7.535 -11.490  0.00  0.00    -0.261 OA
BRANCH  15  17
ATOM     17  C   UNL     1       7.994   5.812 -12.646  0.00  0.00    +0.442 C 
ATOM     18  O   UNL     1       9.339   5.977 -12.311  0.00  0.00    -0.235 OA
ATOM     19  O   UNL     1       7.723   4.757 -13.293  0.00  0.00    -0.235 OA
ENDBRANCH  15  17
ENDBRANCH   6  14
BRANCH   1  21
ATOM     20  N   UNL     1       0.949   5.359 -13.610  0.00  0.00    -0.191 NA
ATOM     21  C   UNL     1       1.460   5.549 -12.582  0.00  0.00    +0.100 C 
ENDBRANCH   1  21
TORSDOF 5
ENDMDL
MODEL 5
REMARK VINA RESULT:      -6.6      1.665      5.915
REMARK  Name = 
REMARK  5 active torsions:
REMARK  status: ('A' for Active; 'I' for Inactive)
REMARK    1  A    between atoms: C_2  and  C_3
REMARK    2  A    between atoms: C_5  and  N_6
REMARK    3  A    between atoms: C_7  and  C_9
REMARK    4  A    between atoms: C_14  and  N_15
REMARK    5  A    between atoms: C_16  and  C_18
REMARK                            x       y       z     vdW  Elec       q    Type
REMARK                         _______ _______ _______ _____ _____    ______ ____
ROOT
ATOM      1  C   UNL     1       1.524   5.624 -10.277  0.00  0.00    +0.071 A 
ATOM      2  C   UNL     1       1.470   5.440  -8.910  0.00  0.00    +0.028 A 
ATOM      3  C   UNL     1       2.618   5.557  -8.160  0.00  0.00    +0.086 A 
ATOM      4  C   UNL     1       3.849   5.650  -8.801  0.00  0.00    +0.088 A 
ATOM      5 CL   UNL     1       5.311   5.483  -7.841  0.00  0.00    -0.080 Cl
ATOM      6  C   UNL     1       3.939   5.753 -10.185  0.00  0.00    +0.086 A 
ATOM      7  C   UNL     1       2.732   5.925 -10.852  0.00  0.00    +0.028 A 
ENDROOT
BRANCH   3   8
ATOM      8  N   UNL     1       2.517   5.846  -6.759  0.00  0.00    -0.169 NA
ATOM      9  C   UNL     1       2.614   4.804  -5.797  0.00  0.00    +0.349 C 
ATOM     10  O   UNL     1       2.208   3.647  -6.120  0.00  0.00    -0.261 OA
BRANCH   9  11
ATOM     11  C   UNL     1       3.329   4.960  -4.526  0.00  0.00    +0.442 C 
ATOM     12  O   UNL     1       2.720   5.377  -3.361  0.00  0.00    -0.235 OA
ATOM     13  O   UNL     1       4.528   4.570  -4.490  0.00  0.00    -0.235 OA
ENDBRANCH   9  11
ENDBRANCH   3   8
BRANCH   6  14
ATOM     14  N   UNL     1       5.099   5.218 -10.830  0.00  0.00    -0.169 NA
ATOM     15  C   UNL     1       5.886   6.001 -11.733  0.00  0.00    +0.349 C 
ATOM     16  O   UNL     1       5.942   7.235 -11.513  0.00  0.00    -0.261 OA
BRANCH  15  17
ATOM     17  C   UNL     1       6.707   5.391 -12.785  0.00  0.00    +0.442 C 
ATOM     18  O   UNL     1       7.809   4.590 -12.481  0.00  0.00    -0.235 OA
ATOM     19  O   UNL     1       6.090   5.083 -13.847  0.00  0.00    -0.235 OA
ENDBRANCH  15  17
ENDBRANCH   6  14
BRANCH   1  21
ATOM     20  N   UNL     1      -0.445   4.721 -11.683  0.00  0.00    -0.191 NA
ATOM     21  C   UNL     1       0.350   5.252 -11.021  0.00  0.00    +0.100 C 
ENDBRANCH   1  21
TORSDOF 5
ENDMDL
MODEL 6
REMARK VINA RESULT:      -6.6      4.074      5.855
REMARK  Name = 
REMARK  5 active torsions:
REMARK  status: ('A' for Active; 'I' for Inactive)
REMARK    1  A    between atoms: C_2  and  C_3
REMARK    2  A    between atoms: C_5  and  N_6
REMARK    3  A    between atoms: C_7  and  C_9
REMARK    4  A    between atoms: C_14  and  N_15
REMARK    5  A    between atoms: C_16  and  C_18
REMARK                            x       y       z     vdW  Elec       q    Type
REMARK                         _______ _______ _______ _____ _____    ______ ____
ROOT
ATOM      1  C   UNL     1       2.625   5.424  -5.048  0.00  0.00    +0.071 A 
ATOM      2  C   UNL     1       2.572   5.070  -6.381  0.00  0.00    +0.028 A 
ATOM      3  C   UNL     1       1.386   5.183  -7.071  0.00  0.00    +0.086 A 
ATOM      4  C   UNL     1       0.211   5.449  -6.375  0.00  0.00    +0.088 A 
ATOM      5 CL   UNL     1      -1.320   5.280  -7.219  0.00  0.00    -0.080 Cl
ATOM      6  C   UNL     1       0.224   5.728  -5.013  0.00  0.00    +0.086 A 
ATOM      7  C   UNL     1       1.482   5.886  -4.446  0.00  0.00    +0.028 A 
ENDROOT
BRANCH   3   8
ATOM      8  N   UNL     1       1.411   5.288  -8.500  0.00  0.00    -0.169 NA
ATOM      9  C   UNL     1       1.934   6.450  -9.131  0.00  0.00    +0.349 C 
ATOM     10  O   UNL     1       1.827   7.561  -8.529  0.00  0.00    -0.261 OA
BRANCH   9  11
ATOM     11  C   UNL     1       2.752   6.394 -10.347  0.00  0.00    +0.442 C 
ATOM     12  O   UNL     1       2.218   6.358 -11.618  0.00  0.00    -0.235 OA
ATOM     13  O   UNL     1       4.000   6.513 -10.205  0.00  0.00    -0.235 OA
ENDBRANCH   9  11
ENDBRANCH   3   8
BRANCH   6  14
ATOM     14  N   UNL     1      -0.924   5.369  -4.238  0.00  0.00    -0.169 NA
ATOM     15  C   UNL     1      -1.774   6.357  -3.650  0.00  0.00    +0.349 C 
ATOM     16  O   UNL     1      -1.889   7.446  -4.264  0.00  0.00    -0.261 OA
BRANCH  15  17
ATOM     17  C   UNL     1      -2.591   6.080  -2.463  0.00  0.00    +0.442 C 
ATOM     18  O   UNL     1      -3.837   6.682  -2.275  0.00  0.00    -0.235 OA
ATOM     19  O   UNL     1      -2.475   4.914  -1.982  0.00  0.00    -0.235 OA
ENDBRANCH  15  17
ENDBRANCH   6  14
BRANCH   1  21
ATOM     20  N   UNL     1       4.898   4.770  -4.013  0.00  0.00    -0.191 NA
ATOM     21  C   UNL     1       3.817   5.055  -4.333  0.00  0.00    +0.100 C 
ENDBRANCH   1  21
TORSDOF 5
ENDMDL
MODEL 7
REMARK VINA RESULT:      -6.6      3.869      7.905
REMARK  Name = 
REMARK  5 active torsions:
REMARK  status: ('A' for Active; 'I' for Inactive)
REMARK    1  A    between atoms: C_2  and  C_3
REMARK    2  A    between atoms: C_5  and  N_6
REMARK    3  A    between atoms: C_7  and  C_9
REMARK    4  A    between atoms: C_14  and  N_15
REMARK    5  A    between atoms: C_16  and  C_18
REMARK                            x       y       z     vdW  Elec       q    Type
REMARK                         _______ _______ _______ _____ _____    ______ ____
ROOT
ATOM      1  C   UNL     1       3.480   6.475  -5.012  0.00  0.00    +0.071 A 
ATOM      2  C   UNL     1       2.333   6.471  -4.243  0.00  0.00    +0.028 A 
ATOM      3  C   UNL     1       1.216   5.800  -4.687  0.00  0.00    +0.086 A 
ATOM      4  C   UNL     1       1.181   5.313  -5.989  0.00  0.00    +0.088 A 
ATOM      5 CL   UNL     1      -0.351   4.744  -6.633  0.00  0.00    -0.080 Cl
ATOM      6  C   UNL     1       2.297   5.378  -6.816  0.00  0.00    +0.086 A 
ATOM      7  C   UNL     1       3.471   5.800  -6.205  0.00  0.00    +0.028 A 
ENDROOT
BRANCH   3   8
ATOM      8  N   UNL     1       0.224   5.382  -3.740  0.00  0.00    -0.169 NA
ATOM      9  C   UNL     1      -1.030   6.048  -3.664  0.00  0.00    +0.349 C 
ATOM     10  O   UNL     1      -1.074   7.282  -3.953  0.00  0.00    -0.261 OA
BRANCH   9  11
ATOM     11  C   UNL     1      -2.295   5.338  -3.452  0.00  0.00    +0.442 C 
ATOM     12  O   UNL     1      -3.193   5.069  -4.464  0.00  0.00    -0.235 OA
ATOM     13  O   UNL     1      -2.493   4.848  -2.306  0.00  0.00    -0.235 OA
ENDBRANCH   9  11
ENDBRANCH   3   8
BRANCH   6  14
ATOM     14  N   UNL     1       2.088   5.488  -8.228  0.00  0.00    -0.169 NA
ATOM     15  C   UNL     1       1.609   6.696  -8.825  0.00  0.00    +0.349 C 
ATOM     16  O   UNL     1       1.933   7.773  -8.267  0.00  0.00    -0.261 OA
BRANCH  15  17
ATOM     17  C   UNL     1       0.892   6.706 -10.105  0.00  0.00    +0.442 C 
ATOM     18  O   UNL     1       1.565   6.586 -11.322  0.00  0.00    -0.235 OA
ATOM     19  O   UNL     1      -0.273   6.210 -10.080  0.00  0.00    -0.235 OA
ENDBRANCH  15  17
ENDBRANCH   6  14
BRANCH   1  21
ATOM     20  N   UNL     1       5.491   7.885  -4.215  0.00  0.00    -0.191 NA
ATOM     21  C   UNL     1       4.517   7.386  -4.610  0.00  0.00    +0.100 C 
ENDBRANCH   1  21
TORSDOF 5
ENDMDL
MODEL 8
REMARK VINA RESULT:      -6.6      2.947      3.936
REMARK  Name = 
REMARK  5 active torsions:
REMARK  status: ('A' for Active; 'I' for Inactive)
REMARK    1  A    between atoms: C_2  and  C_3
REMARK    2  A    between atoms: C_5  and  N_6
REMARK    3  A    between atoms: C_7  and  C_9
REMARK    4  A    between atoms: C_14  and  N_15
REMARK    5  A    between atoms: C_16  and  C_18
REMARK                            x       y       z     vdW  Elec       q    Type
REMARK                         _______ _______ _______ _____ _____    ______ ____
ROOT
ATOM      1  C   UNL     1      -0.155   5.493  -7.098  0.00  0.00    +0.071 A 
ATOM      2  C   UNL     1      -0.140   5.568  -8.476  0.00  0.00    +0.028 A 
ATOM      3  C   UNL     1       1.041   5.836  -9.132  0.00  0.00    +0.086 A 
ATOM      4  C   UNL     1       2.156   6.234  -8.400  0.00  0.00    +0.088 A 
ATOM      5 CL   UNL     1       3.546   6.868  -9.267  0.00  0.00    -0.080 Cl
ATOM      6  C   UNL     1       2.143   6.247  -7.010  0.00  0.00    +0.086 A 
ATOM      7  C   UNL     1       1.019   5.685  -6.417  0.00  0.00    +0.028 A 
ENDROOT
BRANCH   3   8
ATOM      8  N   UNL     1       1.186   5.454 -10.505  0.00  0.00    -0.169 NA
ATOM      9  C   UNL     1       0.917   6.383 -11.547  0.00  0.00    +0.349 C 
ATOM     10  O   UNL     1       0.039   7.275 -11.346  0.00  0.00    -0.261 OA
BRANCH   9  11
ATOM     11  C   UNL     1       1.733   6.472 -12.762  0.00  0.00    +0.442 C 
ATOM     12  O   UNL     1       1.286   7.042 -13.935  0.00  0.00    -0.235 OA
ATOM     13  O   UNL     1       2.940   6.117 -12.670  0.00  0.00    -0.235 OA
ENDBRANCH   9  11
ENDBRANCH   3   8
BRANCH   6  14
ATOM     14  N   UNL     1       2.967   7.203  -6.334  0.00  0.00    -0.169 NA
ATOM     15  C   UNL     1       4.040   6.800  -5.480  0.00  0.00    +0.349 C 
ATOM     16  O   UNL     1       4.628   5.730  -5.773  0.00  0.00    -0.261 OA
BRANCH  15  17
ATOM     17  C   UNL     1       4.538   7.651  -4.394  0.00  0.00    +0.442 C 
ATOM     18  O   UNL     1       3.781   7.889  -3.245  0.00  0.00    -0.235 OA
ATOM     19  O   UNL     1       5.793   7.636  -4.222  0.00  0.00    -0.235 OA
ENDBRANCH  15  17
ENDBRANCH   6  14
BRANCH   1  21
ATOM     20  N   UNL     1      -2.564   5.603  -6.173  0.00  0.00    -0.191 NA
ATOM     21  C   UNL     1      -1.450   5.453  -6.473  0.00  0.00    +0.100 C 
ENDBRANCH   1  21
TORSDOF 5
ENDMDL
MODEL 9
REMARK VINA RESULT:      -6.4      2.560      3.224
REMARK  Name = 
REMARK  5 active torsions:
REMARK  status: ('A' for Active; 'I' for Inactive)
REMARK    1  A    between atoms: C_2  and  C_3
REMARK    2  A    between atoms: C_5  and  N_6
REMARK    3  A    between atoms: C_7  and  C_9
REMARK    4  A    between atoms: C_14  and  N_15
REMARK    5  A    between atoms: C_16  and  C_18
REMARK                            x       y       z     vdW  Elec       q    Type
REMARK                         _______ _______ _______ _____ _____    ______ ____
ROOT
ATOM      1  C   UNL     1       1.827   5.701 -13.787  0.00  0.00    +0.071 A 
ATOM      2  C   UNL     1       3.171   5.734 -14.099  0.00  0.00    +0.028 A 
ATOM      3  C   UNL     1       4.106   5.521 -13.111  0.00  0.00    +0.086 A 
ATOM      4  C   UNL     1       3.701   5.484 -11.781  0.00  0.00    +0.088 A 
ATOM      5 CL   UNL     1       4.931   5.525 -10.527  0.00  0.00    -0.080 Cl
ATOM      6  C   UNL     1       2.356   5.532 -11.432  0.00  0.00    +0.086 A 
ATOM      7  C   UNL     1       1.460   5.450 -12.490  0.00  0.00    +0.028 A 
ENDROOT
BRANCH   3   8
ATOM      8  N   UNL     1       5.422   5.082 -13.471  0.00  0.00    -0.169 NA
ATOM      9  C   UNL     1       6.537   5.953 -13.339  0.00  0.00    +0.349 C 
ATOM     10  O   UNL     1       6.348   7.198 -13.481  0.00  0.00    -0.261 OA
BRANCH   9  11
ATOM     11  C   UNL     1       7.848   5.499 -12.863  0.00  0.00    +0.442 C 
ATOM     12  O   UNL     1       8.975   6.293 -12.875  0.00  0.00    -0.235 OA
ATOM     13  O   UNL     1       7.896   4.369 -12.305  0.00  0.00    -0.235 OA
ENDBRANCH   9  11
ENDBRANCH   3   8
BRANCH   6  14
ATOM     14  N   UNL     1       2.004   6.120 -10.175  0.00  0.00    -0.169 NA
ATOM     15  C   UNL     1       1.606   5.322  -9.057  0.00  0.00    +0.349 C 
ATOM     16  O   UNL     1       2.116   4.179  -8.965  0.00  0.00    -0.261 OA
BRANCH  15  17
ATOM     17  C   UNL     1       0.755   5.848  -7.984  0.00  0.00    +0.442 C 
ATOM     18  O   UNL     1      -0.606   5.546  -7.915  0.00  0.00    -0.235 OA
ATOM     19  O   UNL     1       1.329   6.018  -6.868  0.00  0.00    -0.235 OA
ENDBRANCH  15  17
ENDBRANCH   6  14
BRANCH   1  21
ATOM     20  N   UNL     1       0.418   6.524 -15.789  0.00  0.00    -0.191 NA
ATOM     21  C   UNL     1       0.921   6.167 -14.803  0.00  0.00    +0.100 C 
ENDBRANCH   1  21
TORSDOF 5
ENDMDL
