MODEL 1
REMARK VINA RESULT:      -9.5      0.000      0.000
REMARK  Name = 
REMARK  7 active torsions:
REMARK  status: ('A' for Active; 'I' for Inactive)
REMARK    1  A    between atoms: C_2  and  C_3
REMARK    2  A    between atoms: C_2  and  C_20
REMARK    3  A    between atoms: C_12  and  C_13
REMARK    4  A    between atoms: C_23  and  O_24
REMARK    5  A    between atoms: O_24  and  C_25
REMARK    6  A    between atoms: C_25  and  C_26
REMARK    7  A    between atoms: C_26  and  N_27
REMARK                            x       y       z     vdW  Elec       q    Type
REMARK                         _______ _______ _______ _____ _____    ______ ____
ROOT
ATOM      1  O   UNL     1       1.997   8.568  -7.740  0.00  0.00    -0.287 OA
ATOM      2  C   UNL     1       2.013   7.326  -7.990  0.00  0.00    +0.196 C 
ENDROOT
BRANCH   2   3
ATOM      3  C   UNL     1       1.017   6.417  -7.403  0.00  0.00    +0.045 A 
ATOM      4  C   UNL     1       0.097   5.721  -8.181  0.00  0.00    +0.033 A 
ATOM      5  S   UNL     1      -1.035   5.244  -6.980  0.00  0.00    -0.087 S 
ATOM      6  C   UNL     1      -0.101   5.610  -5.585  0.00  0.00    +0.033 A 
ATOM      7  C   UNL     1      -0.244   5.544  -4.203  0.00  0.00    +0.048 A 
ATOM      8  C   UNL     1       0.866   5.494  -3.367  0.00  0.00    +0.196 A 
ATOM      9  O   UNL     1       0.690   5.009  -2.091  0.00  0.00    -0.287 OA
ATOM     10  C   UNL     1       2.092   5.321  -3.998  0.00  0.00    +0.042 A 
ATOM     11  C   UNL     1       2.226   5.839  -5.278  0.00  0.00    +0.004 A 
ATOM     12  C   UNL     1       1.150   5.812  -6.158  0.00  0.00    +0.010 A 
BRANCH   4  13
ATOM     13  C   UNL     1       0.101   5.524  -9.635  0.00  0.00    +0.006 A 
ATOM     14  C   UNL     1       0.981   4.631 -10.230  0.00  0.00    +0.004 A 
ATOM     15  C   UNL     1       1.014   4.582 -11.617  0.00  0.00    +0.042 A 
ATOM     16  C   UNL     1       0.949   5.798 -12.282  0.00  0.00    +0.196 A 
ATOM     17  O   UNL     1       1.603   6.016 -13.497  0.00  0.00    -0.287 OA
ATOM     18  C   UNL     1       0.363   6.874 -11.637  0.00  0.00    +0.042 A 
ATOM     19  C   UNL     1      -0.210   6.649 -10.391  0.00  0.00    +0.004 A 
ENDBRANCH   4  13
ENDBRANCH   2   3
BRANCH   2  20
ATOM     20  C   UNL     1       3.270   6.832  -8.564  0.00  0.00    +0.039 A 
ATOM     21  C   UNL     1       3.665   7.164  -9.854  0.00  0.00    +0.006 A 
ATOM     22  C   UNL     1       4.837   6.638 -10.355  0.00  0.00    +0.037 A 
ATOM     23  C   UNL     1       5.554   5.709  -9.643  0.00  0.00    +0.139 A 
ATOM     24  C   UNL     1       4.924   5.118  -8.567  0.00  0.00    +0.037 A 
ATOM     25  C   UNL     1       3.969   5.850  -7.899  0.00  0.00    +0.006 A 
BRANCH  23  26
ATOM     26  O   UNL     1       6.835   5.312 -10.022  0.00  0.00    -0.474 OA
BRANCH  26  27
ATOM     27  C   UNL     1       7.374   5.945 -11.168  0.00  0.00    +0.223 C 
BRANCH  27  28
ATOM     28  C   UNL     1       7.790   4.931 -12.193  0.00  0.00    +0.120 C 
BRANCH  28  29
ATOM     29  N   UNL     1       7.170   5.121 -13.480  0.00  0.00    -0.270 NA
ATOM     30  C   UNL     1       7.554   6.396 -14.080  0.00  0.00    +0.072 C 
ATOM     31  C   UNL     1       6.849   6.474 -15.428  0.00  0.00    +0.017 C 
ATOM     32  C   UNL     1       5.351   6.669 -15.230  0.00  0.00    +0.003 C 
ATOM     33  C   UNL     1       4.988   6.193 -13.850  0.00  0.00    +0.017 C 
ATOM     34  C   UNL     1       5.740   4.952 -13.439  0.00  0.00    +0.072 C 
ENDBRANCH  28  29
ENDBRANCH  27  28
ENDBRANCH  26  27
ENDBRANCH  23  26
ENDBRANCH   2  20
TORSDOF 7
ENDMDL
MODEL 2
REMARK VINA RESULT:      -9.3      3.611      9.637
REMARK  Name = 
REMARK  7 active torsions:
REMARK  status: ('A' for Active; 'I' for Inactive)
REMARK    1  A    between atoms: C_2  and  C_3
REMARK    2  A    between atoms: C_2  and  C_20
REMARK    3  A    between atoms: C_12  and  C_13
REMARK    4  A    between atoms: C_23  and  O_24
REMARK    5  A    between atoms: O_24  and  C_25
REMARK    6  A    between atoms: C_25  and  C_26
REMARK    7  A    between atoms: C_26  and  N_27
REMARK                            x       y       z     vdW  Elec       q    Type
REMARK                         _______ _______ _______ _____ _____    ______ ____
ROOT
ATOM      1  O   UNL     1       2.112   8.556  -7.871  0.00  0.00    -0.287 OA
ATOM      2  C   UNL     1       2.246   7.327  -7.590  0.00  0.00    +0.196 C 
ENDROOT
BRANCH   2   3
ATOM      3  C   UNL     1       3.215   6.482  -8.304  0.00  0.00    +0.045 A 
ATOM      4  C   UNL     1       4.220   5.782  -7.643  0.00  0.00    +0.033 A 
ATOM      5  S   UNL     1       5.258   5.402  -8.958  0.00  0.00    -0.087 S 
ATOM      6  C   UNL     1       4.197   5.802 -10.248  0.00  0.00    +0.033 A 
ATOM      7  C   UNL     1       4.223   5.808 -11.639  0.00  0.00    +0.048 A 
ATOM      8  C   UNL     1       3.048   5.759 -12.380  0.00  0.00    +0.196 A 
ATOM      9  O   UNL     1       3.128   5.342 -13.690  0.00  0.00    -0.287 OA
ATOM     10  C   UNL     1       1.886   5.514 -11.658  0.00  0.00    +0.042 A 
ATOM     11  C   UNL     1       1.847   5.965 -10.346  0.00  0.00    +0.004 A 
ATOM     12  C   UNL     1       2.995   5.933  -9.562  0.00  0.00    +0.010 A 
BRANCH   4  13
ATOM     13  C   UNL     1       4.346   5.516  -6.205  0.00  0.00    +0.006 A 
ATOM     14  C   UNL     1       3.492   4.627  -5.569  0.00  0.00    +0.004 A 
ATOM     15  C   UNL     1       3.590   4.512  -4.188  0.00  0.00    +0.042 A 
ATOM     16  C   UNL     1       3.766   5.691  -3.479  0.00  0.00    +0.196 A 
ATOM     17  O   UNL     1       3.240   5.873  -2.198  0.00  0.00    -0.287 OA
ATOM     18  C   UNL     1       4.329   6.776  -4.129  0.00  0.00    +0.042 A 
ATOM     19  C   UNL     1       4.772   6.591  -5.434  0.00  0.00    +0.004 A 
ENDBRANCH   4  13
ENDBRANCH   2   3
BRANCH   2  20
ATOM     20  C   UNL     1       1.142   6.752  -6.812  0.00  0.00    +0.039 A 
ATOM     21  C   UNL     1       0.241   5.857  -7.373  0.00  0.00    +0.006 A 
ATOM     22  C   UNL     1      -0.800   5.380  -6.605  0.00  0.00    +0.037 A 
ATOM     23  C   UNL     1      -1.020   5.861  -5.339  0.00  0.00    +0.139 A 
ATOM     24  C   UNL     1      -0.359   7.018  -4.981  0.00  0.00    +0.037 A 
ATOM     25  C   UNL     1       0.862   7.269  -5.567  0.00  0.00    +0.006 A 
BRANCH  23  26
ATOM     26  O   UNL     1      -1.927   5.263  -4.466  0.00  0.00    -0.474 OA
BRANCH  26  27
ATOM     27  C   UNL     1      -2.684   6.139  -3.652  0.00  0.00    +0.223 C 
BRANCH  27  28
ATOM     28  C   UNL     1      -2.557   5.767  -2.203  0.00  0.00    +0.120 C 
BRANCH  28  29
ATOM     29  N   UNL     1      -1.596   6.561  -1.483  0.00  0.00    -0.270 NA
ATOM     30  C   UNL     1      -0.448   5.765  -1.057  0.00  0.00    +0.072 C 
ATOM     31  C   UNL     1       0.493   6.711  -0.322  0.00  0.00    +0.017 C 
ATOM     32  C   UNL     1      -0.109   7.119   1.016  0.00  0.00    +0.003 C 
ATOM     33  C   UNL     1      -1.598   6.916   0.951  0.00  0.00    +0.017 C 
ATOM     34  C   UNL     1      -2.185   7.289  -0.387  0.00  0.00    +0.072 C 
ENDBRANCH  28  29
ENDBRANCH  27  28
ENDBRANCH  26  27
ENDBRANCH  23  26
ENDBRANCH   2  20
TORSDOF 7
ENDMDL
MODEL 3
REMARK VINA RESULT:      -9.2      3.543      8.246
REMARK  Name = 
REMARK  7 active torsions:
REMARK  status: ('A' for Active; 'I' for Inactive)
REMARK    1  A    between atoms: C_2  and  C_3
REMARK    2  A    between atoms: C_2  and  C_20
REMARK    3  A    between atoms: C_12  and  C_13
REMARK    4  A    between atoms: C_23  and  O_24
REMARK    5  A    between atoms: O_24  and  C_25
REMARK    6  A    between atoms: C_25  and  C_26
REMARK    7  A    between atoms: C_26  and  N_27
REMARK                            x       y       z     vdW  Elec       q    Type
REMARK                         _______ _______ _______ _____ _____    ______ ____
ROOT
ATOM      1  O   UNL     1       2.301   3.390  -6.305  0.00  0.00    -0.287 OA
ATOM      2  C   UNL     1       2.406   4.638  -6.499  0.00  0.00    +0.196 C 
ENDROOT
BRANCH   2   3
ATOM      3  C   UNL     1       2.105   5.234  -7.809  0.00  0.00    +0.045 A 
ATOM      4  C   UNL     1       0.885   5.843  -8.085  0.00  0.00    +0.033 A 
ATOM      5  S   UNL     1       0.943   5.902  -9.802  0.00  0.00    -0.087 S 
ATOM      6  C   UNL     1       2.604   5.523 -10.017  0.00  0.00    +0.033 A 
ATOM      7  C   UNL     1       3.493   5.351 -11.073  0.00  0.00    +0.048 A 
ATOM      8  C   UNL     1       4.864   5.493 -10.889  0.00  0.00    +0.196 A 
ATOM      9  O   UNL     1       5.641   5.737 -11.999  0.00  0.00    -0.287 OA
ATOM     10  C   UNL     1       5.261   5.997  -9.656  0.00  0.00    +0.042 A 
ATOM     11  C   UNL     1       4.452   5.714  -8.564  0.00  0.00    +0.004 A 
ATOM     12  C   UNL     1       3.071   5.660  -8.714  0.00  0.00    +0.010 A 
BRANCH   4  13
ATOM     13  C   UNL     1      -0.161   6.253  -7.140  0.00  0.00    +0.006 A 
ATOM     14  C   UNL     1       0.162   6.925  -5.970  0.00  0.00    +0.004 A 
ATOM     15  C   UNL     1      -0.861   7.176  -5.066  0.00  0.00    +0.042 A 
ATOM     16  C   UNL     1      -1.777   6.154  -4.865  0.00  0.00    +0.196 A 
ATOM     17  O   UNL     1      -2.396   5.942  -3.631  0.00  0.00    -0.287 OA
ATOM     18  C   UNL     1      -1.949   5.214  -5.867  0.00  0.00    +0.042 A 
ATOM     19  C   UNL     1      -1.258   5.403  -7.059  0.00  0.00    +0.004 A 
ENDBRANCH   4  13
ENDBRANCH   2   3
BRANCH   2  20
ATOM     20  C   UNL     1       3.189   5.353  -5.484  0.00  0.00    +0.039 A 
ATOM     21  C   UNL     1       3.292   6.738  -5.484  0.00  0.00    +0.006 A 
ATOM     22  C   UNL     1       4.074   7.354  -4.529  0.00  0.00    +0.037 A 
ATOM     23  C   UNL     1       4.833   6.616  -3.656  0.00  0.00    +0.139 A 
ATOM     24  C   UNL     1       5.010   5.279  -3.951  0.00  0.00    +0.037 A 
ATOM     25  C   UNL     1       4.010   4.635  -4.644  0.00  0.00    +0.006 A 
BRANCH  23  26
ATOM     26  O   UNL     1       5.469   7.191  -2.557  0.00  0.00    -0.474 OA
BRANCH  26  27
ATOM     27  C   UNL     1       4.631   7.605  -1.494  0.00  0.00    +0.223 C 
BRANCH  27  28
ATOM     28  C   UNL     1       4.423   6.489  -0.511  0.00  0.00    +0.120 C 
BRANCH  28  29
ATOM     29  N   UNL     1       3.077   5.980  -0.488  0.00  0.00    -0.270 NA
ATOM     30  C   UNL     1       2.990   4.656  -1.100  0.00  0.00    +0.072 C 
ATOM     31  C   UNL     1       1.532   4.226  -1.007  0.00  0.00    +0.017 C 
ATOM     32  C   UNL     1       0.676   5.056  -1.955  0.00  0.00    +0.003 C 
ATOM     33  C   UNL     1       1.404   6.338  -2.256  0.00  0.00    +0.017 C 
ATOM     34  C   UNL     1       2.124   6.901  -1.057  0.00  0.00    +0.072 C 
ENDBRANCH  28  29
ENDBRANCH  27  28
ENDBRANCH  26  27
ENDBRANCH  23  26
ENDBRANCH   2  20
TORSDOF 7
ENDMDL
MODEL 4
REMARK VINA RESULT:      -9.2      4.668      8.705
REMARK  Name = 
REMARK  7 active torsions:
REMARK  status: ('A' for Active; 'I' for Inactive)
REMARK    1  A    between atoms: C_2  and  C_3
REMARK    2  A    between atoms: C_2  and  C_20
REMARK    3  A    between atoms: C_12  and  C_13
REMARK    4  A    between atoms: C_23  and  O_24
REMARK    5  A    between atoms: O_24  and  C_25
REMARK    6  A    between atoms: C_25  and  C_26
REMARK    7  A    between atoms: C_26  and  N_27
REMARK                            x       y       z     vdW  Elec       q    Type
REMARK                         _______ _______ _______ _____ _____    ______ ____
ROOT
ATOM      1  O   UNL     1       4.218   5.778  -0.012  0.00  0.00    -0.287 OA
ATOM      2  C   UNL     1       3.535   6.469  -0.824  0.00  0.00    +0.196 C 
ENDROOT
BRANCH   2   3
ATOM      3  C   UNL     1       2.265   7.090  -0.419  0.00  0.00    +0.045 A 
ATOM      4  C   UNL     1       2.213   8.316   0.236  0.00  0.00    +0.033 A 
ATOM      5  S   UNL     1       0.606   8.282   0.843  0.00  0.00    -0.087 S 
ATOM      6  C   UNL     1       0.015   6.950  -0.066  0.00  0.00    +0.033 A 
ATOM      7  C   UNL     1      -1.172   6.237  -0.196  0.00  0.00    +0.048 A 
ATOM      8  C   UNL     1      -1.448   5.505  -1.345  0.00  0.00    +0.196 A 
ATOM      9  O   UNL     1      -2.762   5.186  -1.605  0.00  0.00    -0.287 OA
ATOM     10  C   UNL     1      -0.569   5.686  -2.405  0.00  0.00    +0.042 A 
ATOM     11  C   UNL     1       0.748   5.993  -2.093  0.00  0.00    +0.004 A 
ATOM     12  C   UNL     1       1.035   6.802  -0.999  0.00  0.00    +0.010 A 
BRANCH   4  13
ATOM     13  C   UNL     1       3.282   9.310   0.391  0.00  0.00    +0.006 A 
ATOM     14  C   UNL     1       3.676   9.741   1.650  0.00  0.00    +0.004 A 
ATOM     15  C   UNL     1       4.608  10.768   1.719  0.00  0.00    +0.042 A 
ATOM     16  C   UNL     1       4.450  11.811   0.819  0.00  0.00    +0.196 A 
ATOM     17  O   UNL     1       4.796  13.126   1.137  0.00  0.00    -0.287 OA
ATOM     18  C   UNL     1       3.769  11.567  -0.362  0.00  0.00    +0.042 A 
ATOM     19  C   UNL     1       3.363  10.263  -0.618  0.00  0.00    +0.004 A 
ENDBRANCH   4  13
ENDBRANCH   2   3
BRANCH   2  20
ATOM     20  C   UNL     1       3.892   6.287  -2.236  0.00  0.00    +0.039 A 
ATOM     21  C   UNL     1       4.232   5.041  -2.749  0.00  0.00    +0.006 A 
ATOM     22  C   UNL     1       4.597   4.936  -4.074  0.00  0.00    +0.037 A 
ATOM     23  C   UNL     1       4.738   6.053  -4.858  0.00  0.00    +0.139 A 
ATOM     24  C   UNL     1       4.785   7.272  -4.213  0.00  0.00    +0.037 A 
ATOM     25  C   UNL     1       4.106   7.397  -3.022  0.00  0.00    +0.006 A 
BRANCH  23  26
ATOM     26  O   UNL     1       4.904   5.974  -6.240  0.00  0.00    -0.474 OA
BRANCH  26  27
ATOM     27  C   UNL     1       3.784   6.335  -7.027  0.00  0.00    +0.223 C 
BRANCH  27  28
ATOM     28  C   UNL     1       3.372   5.202  -7.922  0.00  0.00    +0.120 C 
BRANCH  28  29
ATOM     29  N   UNL     1       1.990   4.826  -7.781  0.00  0.00    -0.270 NA
ATOM     30  C   UNL     1       1.100   5.975  -7.929  0.00  0.00    +0.072 C 
ATOM     31  C   UNL     1      -0.322   5.450  -7.770  0.00  0.00    +0.017 C 
ATOM     32  C   UNL     1      -0.578   5.051  -6.322  0.00  0.00    +0.003 C 
ATOM     33  C   UNL     1       0.747   4.791  -5.659  0.00  0.00    +0.017 C 
ATOM     34  C   UNL     1       1.733   4.097  -6.564  0.00  0.00    +0.072 C 
ENDBRANCH  28  29
ENDBRANCH  27  28
ENDBRANCH  26  27
ENDBRANCH  23  26
ENDBRANCH   2  20
TORSDOF 7
ENDMDL
MODEL 5
REMARK VINA RESULT:      -8.9      4.339      7.808
REMARK  Name = 
REMARK  7 active torsions:
REMARK  status: ('A' for Active; 'I' for Inactive)
REMARK    1  A    between atoms: C_2  and  C_3
REMARK    2  A    between atoms: C_2  and  C_20
REMARK    3  A    between atoms: C_12  and  C_13
REMARK    4  A    between atoms: C_23  and  O_24
REMARK    5  A    between atoms: O_24  and  C_25
REMARK    6  A    between atoms: C_25  and  C_26
REMARK    7  A    between atoms: C_26  and  N_27
REMARK                            x       y       z     vdW  Elec       q    Type
REMARK                         _______ _______ _______ _____ _____    ______ ____
ROOT
ATOM      1  O   UNL     1       4.127   5.278  -0.385  0.00  0.00    -0.287 OA
ATOM      2  C   UNL     1       3.509   6.125  -1.097  0.00  0.00    +0.196 C 
ENDROOT
BRANCH   2   3
ATOM      3  C   UNL     1       2.255   6.740  -0.636  0.00  0.00    +0.045 A 
ATOM      4  C   UNL     1       2.235   7.906   0.124  0.00  0.00    +0.033 A 
ATOM      5  S   UNL     1       0.628   7.860   0.730  0.00  0.00    -0.087 S 
ATOM      6  C   UNL     1       0.002   6.627  -0.290  0.00  0.00    +0.033 A 
ATOM      7  C   UNL     1      -1.202   5.958  -0.478  0.00  0.00    +0.048 A 
ATOM      8  C   UNL     1      -1.498   5.335  -1.685  0.00  0.00    +0.196 A 
ATOM      9  O   UNL     1      -2.820   5.073  -1.969  0.00  0.00    -0.287 OA
ATOM     10  C   UNL     1      -0.615   5.586  -2.729  0.00  0.00    +0.042 A 
ATOM     11  C   UNL     1       0.709   5.831  -2.395  0.00  0.00    +0.004 A 
ATOM     12  C   UNL     1       1.018   6.535  -1.236  0.00  0.00    +0.010 A 
BRANCH   4  13
ATOM     13  C   UNL     1       3.329   8.855   0.361  0.00  0.00    +0.006 A 
ATOM     14  C   UNL     1       3.786   9.106   1.647  0.00  0.00    +0.004 A 
ATOM     15  C   UNL     1       4.740  10.102   1.811  0.00  0.00    +0.042 A 
ATOM     16  C   UNL     1       4.562  11.259   1.067  0.00  0.00    +0.196 A 
ATOM     17  O   UNL     1       4.948  12.514   1.543  0.00  0.00    -0.287 OA
ATOM     18  C   UNL     1       3.826  11.186  -0.104  0.00  0.00    +0.042 A 
ATOM     19  C   UNL     1       3.383   9.934  -0.514  0.00  0.00    +0.004 A 
ENDBRANCH   4  13
ENDBRANCH   2   3
BRANCH   2  20
ATOM     20  C   UNL     1       3.910   6.149  -2.509  0.00  0.00    +0.039 A 
ATOM     21  C   UNL     1       4.024   7.339  -3.216  0.00  0.00    +0.006 A 
ATOM     22  C   UNL     1       4.365   7.298  -4.551  0.00  0.00    +0.037 A 
ATOM     23  C   UNL     1       4.483   6.101  -5.212  0.00  0.00    +0.139 A 
ATOM     24  C   UNL     1       3.973   4.982  -4.585  0.00  0.00    +0.037 A 
ATOM     25  C   UNL     1       3.966   4.965  -3.208  0.00  0.00    +0.006 A 
BRANCH  23  26
ATOM     26  O   UNL     1       5.021   6.012  -6.495  0.00  0.00    -0.474 OA
BRANCH  26  27
ATOM     27  C   UNL     1       4.211   5.387  -7.473  0.00  0.00    +0.223 C 
BRANCH  27  28
ATOM     28  C   UNL     1       5.034   4.947  -8.649  0.00  0.00    +0.120 C 
BRANCH  28  29
ATOM     29  N   UNL     1       5.750   6.021  -9.288  0.00  0.00    -0.270 NA
ATOM     30  C   UNL     1       5.121   6.415 -10.546  0.00  0.00    +0.072 C 
ATOM     31  C   UNL     1       5.957   7.554 -11.116  0.00  0.00    +0.017 C 
ATOM     32  C   UNL     1       7.303   7.030 -11.598  0.00  0.00    +0.003 C 
ATOM     33  C   UNL     1       7.589   5.731 -10.895  0.00  0.00    +0.017 C 
ATOM     34  C   UNL     1       7.153   5.735  -9.451  0.00  0.00    +0.072 C 
ENDBRANCH  28  29
ENDBRANCH  27  28
ENDBRANCH  26  27
ENDBRANCH  23  26
ENDBRANCH   2  20
TORSDOF 7
ENDMDL
MODEL 6
REMARK VINA RESULT:      -8.8      4.426      9.646
REMARK  Name = 
REMARK  7 active torsions:
REMARK  status: ('A' for Active; 'I' for Inactive)
REMARK    1  A    between atoms: C_2  and  C_3
REMARK    2  A    between atoms: C_2  and  C_20
REMARK    3  A    between atoms: C_12  and  C_13
REMARK    4  A    between atoms: C_23  and  O_24
REMARK    5  A    between atoms: O_24  and  C_25
REMARK    6  A    between atoms: C_25  and  C_26
REMARK    7  A    between atoms: C_26  and  N_27
REMARK                            x       y       z     vdW  Elec       q    Type
REMARK                         _______ _______ _______ _____ _____    ______ ____
ROOT
ATOM      1  O   UNL     1       1.347   3.778  -6.203  0.00  0.00    -0.287 OA
ATOM      2  C   UNL     1       0.887   4.840  -6.718  0.00  0.00    +0.196 C 
ENDROOT
BRANCH   2   3
ATOM      3  C   UNL     1       1.641   5.583  -7.739  0.00  0.00    +0.045 A 
ATOM      4  C   UNL     1       2.816   6.268  -7.442  0.00  0.00    +0.033 A 
ATOM      5  S   UNL     1       2.954   7.273  -8.829  0.00  0.00    -0.087 S 
ATOM      6  C   UNL     1       1.777   6.508  -9.820  0.00  0.00    +0.033 A 
ATOM      7  C   UNL     1       1.239   6.670 -11.092  0.00  0.00    +0.048 A 
ATOM      8  C   UNL     1       0.630   5.611 -11.755  0.00  0.00    +0.196 A 
ATOM      9  O   UNL     1       0.507   5.693 -13.125  0.00  0.00    -0.287 OA
ATOM     10  C   UNL     1       0.766   4.364 -11.158  0.00  0.00    +0.042 A 
ATOM     11  C   UNL     1       0.873   4.330  -9.775  0.00  0.00    +0.004 A 
ATOM     12  C   UNL     1       1.560   5.336  -9.104  0.00  0.00    +0.010 A 
BRANCH   4  13
ATOM     13  C   UNL     1       3.646   6.169  -6.236  0.00  0.00    +0.006 A 
ATOM     14  C   UNL     1       4.041   4.933  -5.744  0.00  0.00    +0.004 A 
ATOM     15  C   UNL     1       4.723   4.907  -4.534  0.00  0.00    +0.042 A 
ATOM     16  C   UNL     1       4.260   5.759  -3.542  0.00  0.00    +0.196 A 
ATOM     17  O   UNL     1       4.331   5.429  -2.187  0.00  0.00    -0.287 OA
ATOM     18  C   UNL     1       3.552   6.889  -3.918  0.00  0.00    +0.042 A 
ATOM     19  C   UNL     1       3.426   7.151  -5.277  0.00  0.00    +0.004 A 
ENDBRANCH   4  13
ENDBRANCH   2   3
BRANCH   2  20
ATOM     20  C   UNL     1      -0.219   5.454  -5.973  0.00  0.00    +0.039 A 
ATOM     21  C   UNL     1      -1.539   5.326  -6.387  0.00  0.00    +0.006 A 
ATOM     22  C   UNL     1      -2.533   5.958  -5.670  0.00  0.00    +0.037 A 
ATOM     23  C   UNL     1      -2.226   6.797  -4.628  0.00  0.00    +0.139 A 
ATOM     24  C   UNL     1      -0.913   7.204  -4.513  0.00  0.00    +0.037 A 
ATOM     25  C   UNL     1       0.067   6.352  -4.969  0.00  0.00    +0.006 A 
BRANCH  23  26
ATOM     26  O   UNL     1      -3.200   7.286  -3.759  0.00  0.00    -0.474 OA
BRANCH  26  27
ATOM     27  C   UNL     1      -3.551   6.447  -2.674  0.00  0.00    +0.223 C 
BRANCH  27  28
ATOM     28  C   UNL     1      -2.518   5.377  -2.470  0.00  0.00    +0.120 C 
BRANCH  28  29
ATOM     29  N   UNL     1      -1.759   5.529  -1.255  0.00  0.00    -0.270 NA
ATOM     30  C   UNL     1      -1.961   6.845  -0.654  0.00  0.00    +0.072 C 
ATOM     31  C   UNL     1      -1.122   6.879   0.617  0.00  0.00    +0.017 C 
ATOM     32  C   UNL     1       0.360   6.926   0.269  0.00  0.00    +0.003 C 
ATOM     33  C   UNL     1       0.540   6.394  -1.127  0.00  0.00    +0.017 C 
ATOM     34  C   UNL     1      -0.362   5.224  -1.431  0.00  0.00    +0.072 C 
ENDBRANCH  28  29
ENDBRANCH  27  28
ENDBRANCH  26  27
ENDBRANCH  23  26
ENDBRANCH   2  20
TORSDOF 7
ENDMDL
MODEL 7
REMARK VINA RESULT:      -8.7      2.401      3.375
REMARK  Name = 
REMARK  7 active torsions:
REMARK  status: ('A' for Active; 'I' for Inactive)
REMARK    1  A    between atoms: C_2  and  C_3
REMARK    2  A    between atoms: C_2  and  C_20
REMARK    3  A    between atoms: C_12  and  C_13
REMARK    4  A    between atoms: C_23  and  O_24
REMARK    5  A    between atoms: O_24  and  C_25
REMARK    6  A    between atoms: C_25  and  C_26
REMARK    7  A    between atoms: C_26  and  N_27
REMARK                            x       y       z     vdW  Elec       q    Type
REMARK                         _______ _______ _______ _____ _____    ______ ____
ROOT
ATOM      1  O   UNL     1       4.038   3.762  -9.084  0.00  0.00    -0.287 OA
ATOM      2  C   UNL     1       4.151   5.023  -9.038  0.00  0.00    +0.196 C 
ENDROOT
BRANCH   2   3
ATOM      3  C   UNL     1       3.377   5.824  -8.077  0.00  0.00    +0.045 A 
ATOM      4  C   UNL     1       2.119   6.336  -8.379  0.00  0.00    +0.033 A 
ATOM      5  S   UNL     1       1.949   7.510  -7.136  0.00  0.00    -0.087 S 
ATOM      6  C   UNL     1       3.258   7.020  -6.137  0.00  0.00    +0.033 A 
ATOM      7  C   UNL     1       3.846   7.417  -4.941  0.00  0.00    +0.048 A 
ATOM      8  C   UNL     1       4.605   6.532  -4.184  0.00  0.00    +0.196 A 
ATOM      9  O   UNL     1       4.796   6.822  -2.851  0.00  0.00    -0.287 OA
ATOM     10  C   UNL     1       4.576   5.204  -4.594  0.00  0.00    +0.042 A 
ATOM     11  C   UNL     1       4.394   4.962  -5.948  0.00  0.00    +0.004 A 
ATOM     12  C   UNL     1       3.563   5.785  -6.700  0.00  0.00    +0.010 A 
BRANCH   4  13
ATOM     13  C   UNL     1       1.238   5.981  -9.497  0.00  0.00    +0.006 A 
ATOM     14  C   UNL     1       0.920   4.656  -9.759  0.00  0.00    +0.004 A 
ATOM     15  C   UNL     1       0.180   4.383 -10.902  0.00  0.00    +0.042 A 
ATOM     16  C   UNL     1       0.520   5.091 -12.046  0.00  0.00    +0.196 A 
ATOM     17  O   UNL     1       0.406   4.538 -13.323  0.00  0.00    -0.287 OA
ATOM     18  C   UNL     1       1.152   6.314 -11.902  0.00  0.00    +0.042 A 
ATOM     19  C   UNL     1       1.328   6.805 -10.613  0.00  0.00    +0.004 A 
ENDBRANCH   4  13
ENDBRANCH   2   3
BRANCH   2  20
ATOM     20  C   UNL     1       4.782   5.627 -10.217  0.00  0.00    +0.039 A 
ATOM     21  C   UNL     1       5.428   6.855 -10.153  0.00  0.00    +0.006 A 
ATOM     22  C   UNL     1       5.968   7.392 -11.302  0.00  0.00    +0.037 A 
ATOM     23  C   UNL     1       5.780   6.787 -12.519  0.00  0.00    +0.139 A 
ATOM     24  C   UNL     1       4.809   5.809 -12.593  0.00  0.00    +0.037 A 
ATOM     25  C   UNL     1       4.548   5.076 -11.457  0.00  0.00    +0.006 A 
BRANCH  23  26
ATOM     26  O   UNL     1       6.475   7.184 -13.660  0.00  0.00    -0.474 OA
BRANCH  26  27
ATOM     27  C   UNL     1       6.879   6.151 -14.539  0.00  0.00    +0.223 C 
BRANCH  27  28
ATOM     28  C   UNL     1       6.905   6.637 -15.959  0.00  0.00    +0.120 C 
BRANCH  28  29
ATOM     29  N   UNL     1       6.242   7.900 -16.151  0.00  0.00    -0.270 NA
ATOM     30  C   UNL     1       4.882   7.725 -16.657  0.00  0.00    +0.072 C 
ATOM     31  C   UNL     1       4.288   9.119 -16.808  0.00  0.00    +0.017 C 
ATOM     32  C   UNL     1       4.952   9.853 -17.966  0.00  0.00    +0.003 C 
ATOM     33  C   UNL     1       6.291   9.219 -18.227  0.00  0.00    +0.017 C 
ATOM     34  C   UNL     1       7.007   8.813 -16.964  0.00  0.00    +0.072 C 
ENDBRANCH  28  29
ENDBRANCH  27  28
ENDBRANCH  26  27
ENDBRANCH  23  26
ENDBRANCH   2  20
TORSDOF 7
ENDMDL
MODEL 8
REMARK VINA RESULT:      -8.5      4.007      9.271
REMARK  Name = 
REMARK  7 active torsions:
REMARK  status: ('A' for Active; 'I' for Inactive)
REMARK    1  A    between atoms: C_2  and  C_3
REMARK    2  A    between atoms: C_2  and  C_20
REMARK    3  A    between atoms: C_12  and  C_13
REMARK    4  A    between atoms: C_23  and  O_24
REMARK    5  A    between atoms: O_24  and  C_25
REMARK    6  A    between atoms: C_25  and  C_26
REMARK    7  A    between atoms: C_26  and  N_27
REMARK                            x       y       z     vdW  Elec       q    Type
REMARK                         _______ _______ _______ _____ _____    ______ ____
ROOT
ATOM      1  O   UNL     1       2.070   3.072  -6.281  0.00  0.00    -0.287 OA
ATOM      2  C   UNL     1       2.233   4.328  -6.247  0.00  0.00    +0.196 C 
ENDROOT
BRANCH   2   3
ATOM      3  C   UNL     1       2.181   5.139  -7.473  0.00  0.00    +0.045 A 
ATOM      4  C   UNL     1       1.098   5.956  -7.778  0.00  0.00    +0.033 A 
ATOM      5  S   UNL     1       1.379   6.243  -9.448  0.00  0.00    -0.087 S 
ATOM      6  C   UNL     1       2.989   5.652  -9.544  0.00  0.00    +0.033 A 
ATOM      7  C   UNL     1       3.973   5.496 -10.515  0.00  0.00    +0.048 A 
ATOM      8  C   UNL     1       5.316   5.403 -10.168  0.00  0.00    +0.196 A 
ATOM      9  O   UNL     1       6.253   5.679 -11.139  0.00  0.00    -0.287 OA
ATOM     10  C   UNL     1       5.618   5.666  -8.837  0.00  0.00    +0.042 A 
ATOM     11  C   UNL     1       4.648   5.360  -7.894  0.00  0.00    +0.004 A 
ATOM     12  C   UNL     1       3.301   5.535  -8.194  0.00  0.00    +0.010 A 
BRANCH   4  13
ATOM     13  C   UNL     1       0.005   6.384  -6.896  0.00  0.00    +0.006 A 
ATOM     14  C   UNL     1       0.256   7.179  -5.786  0.00  0.00    +0.004 A 
ATOM     15  C   UNL     1      -0.803   7.446  -4.930  0.00  0.00    +0.042 A 
ATOM     16  C   UNL     1      -1.660   6.391  -4.654  0.00  0.00    +0.196 A 
ATOM     17  O   UNL     1      -2.296   6.254  -3.418  0.00  0.00    -0.287 OA
ATOM     18  C   UNL     1      -1.749   5.355  -5.568  0.00  0.00    +0.042 A 
ATOM     19  C   UNL     1      -1.040   5.478  -6.758  0.00  0.00    +0.004 A 
ENDBRANCH   4  13
ENDBRANCH   2   3
BRANCH   2  20
ATOM     20  C   UNL     1       2.836   4.834  -5.008  0.00  0.00    +0.039 A 
ATOM     21  C   UNL     1       4.198   4.724  -4.760  0.00  0.00    +0.006 A 
ATOM     22  C   UNL     1       4.703   5.181  -3.561  0.00  0.00    +0.037 A 
ATOM     23  C   UNL     1       3.868   5.638  -2.573  0.00  0.00    +0.139 A 
ATOM     24  C   UNL     1       2.523   5.356  -2.705  0.00  0.00    +0.037 A 
ATOM     25  C   UNL     1       2.014   5.232  -3.978  0.00  0.00    +0.006 A 
BRANCH  23  26
ATOM     26  O   UNL     1       4.348   6.292  -1.440  0.00  0.00    -0.474 OA
BRANCH  26  27
ATOM     27  C   UNL     1       3.609   7.419  -1.007  0.00  0.00    +0.223 C 
BRANCH  27  28
ATOM     28  C   UNL     1       3.626   7.527   0.491  0.00  0.00    +0.120 C 
BRANCH  28  29
ATOM     29  N   UNL     1       2.315   7.600   1.081  0.00  0.00    -0.270 NA
ATOM     30  C   UNL     1       1.272   7.234   0.126  0.00  0.00    +0.072 C 
ATOM     31  C   UNL     1      -0.055   7.340   0.866  0.00  0.00    +0.017 C 
ATOM     32  C   UNL     1      -0.391   8.800   1.140  0.00  0.00    +0.003 C 
ATOM     33  C   UNL     1       0.882   9.599   1.093  0.00  0.00    +0.017 C 
ATOM     34  C   UNL     1       2.055   8.874   1.703  0.00  0.00    +0.072 C 
ENDBRANCH  28  29
ENDBRANCH  27  28
ENDBRANCH  26  27
ENDBRANCH  23  26
ENDBRANCH   2  20
TORSDOF 7
ENDMDL
MODEL 9
REMARK VINA RESULT:      -8.3      4.299      9.067
REMARK  Name = 
REMARK  7 active torsions:
REMARK  status: ('A' for Active; 'I' for Inactive)
REMARK    1  A    between atoms: C_2  and  C_3
REMARK    2  A    between atoms: C_2  and  C_20
REMARK    3  A    between atoms: C_12  and  C_13
REMARK    4  A    between atoms: C_23  and  O_24
REMARK    5  A    between atoms: O_24  and  C_25
REMARK    6  A    between atoms: C_25  and  C_26
REMARK    7  A    between atoms: C_26  and  N_27
REMARK                            x       y       z     vdW  Elec       q    Type
REMARK                         _______ _______ _______ _____ _____    ______ ____
ROOT
ATOM      1  O   UNL     1       2.796   7.932  -7.205  0.00  0.00    -0.287 OA
ATOM      2  C   UNL     1       2.398   6.798  -6.805  0.00  0.00    +0.196 C 
ENDROOT
BRANCH   2   3
ATOM      3  C   UNL     1       1.174   6.185  -7.343  0.00  0.00    +0.045 A 
ATOM      4  C   UNL     1       0.053   5.949  -6.553  0.00  0.00    +0.033 A 
ATOM      5  S   UNL     1      -0.809   4.846  -7.550  0.00  0.00    -0.087 S 
ATOM      6  C   UNL     1       0.087   5.055  -9.001  0.00  0.00    +0.033 A 
ATOM      7  C   UNL     1       0.081   4.551 -10.297  0.00  0.00    +0.048 A 
ATOM      8  C   UNL     1       0.653   5.260 -11.347  0.00  0.00    +0.196 A 
ATOM      9  O   UNL     1       0.257   4.945 -12.628  0.00  0.00    -0.287 OA
ATOM     10  C   UNL     1       1.045   6.561 -11.057  0.00  0.00    +0.042 A 
ATOM     11  C   UNL     1       1.448   6.827  -9.756  0.00  0.00    +0.004 A 
ATOM     12  C   UNL     1       0.822   6.193  -8.688  0.00  0.00    +0.010 A 
BRANCH   4  13
ATOM     13  C   UNL     1      -0.244   6.475  -5.216  0.00  0.00    +0.006 A 
ATOM     14  C   UNL     1      -0.288   5.632  -4.114  0.00  0.00    +0.004 A 
ATOM     15  C   UNL     1      -0.692   6.175  -2.901  0.00  0.00    +0.042 A 
ATOM     16  C   UNL     1      -1.756   7.064  -2.942  0.00  0.00    +0.196 A 
ATOM     17  O   UNL     1      -2.676   7.170  -1.898  0.00  0.00    -0.287 OA
ATOM     18  C   UNL     1      -2.008   7.739  -4.125  0.00  0.00    +0.042 A 
ATOM     19  C   UNL     1      -1.120   7.553  -5.179  0.00  0.00    +0.004 A 
ENDBRANCH   4  13
ENDBRANCH   2   3
BRANCH   2  20
ATOM     20  C   UNL     1       3.004   6.343  -5.548  0.00  0.00    +0.039 A 
ATOM     21  C   UNL     1       3.308   5.006  -5.325  0.00  0.00    +0.006 A 
ATOM     22  C   UNL     1       3.839   4.631  -4.109  0.00  0.00    +0.037 A 
ATOM     23  C   UNL     1       3.964   5.536  -3.085  0.00  0.00    +0.139 A 
ATOM     24  C   UNL     1       3.286   6.731  -3.214  0.00  0.00    +0.037 A 
ATOM     25  C   UNL     1       3.075   7.216  -4.486  0.00  0.00    +0.006 A 
BRANCH  23  26
ATOM     26  O   UNL     1       4.677   5.247  -1.923  0.00  0.00    -0.474 OA
BRANCH  26  27
ATOM     27  C   UNL     1       3.991   5.445  -0.700  0.00  0.00    +0.223 C 
BRANCH  27  28
ATOM     28  C   UNL     1       4.601   6.574   0.078  0.00  0.00    +0.120 C 
BRANCH  28  29
ATOM     29  N   UNL     1       3.636   7.386   0.773  0.00  0.00    -0.270 NA
ATOM     30  C   UNL     1       2.324   7.330   0.134  0.00  0.00    +0.072 C 
ATOM     31  C   UNL     1       1.397   8.214   0.959  0.00  0.00    +0.017 C 
ATOM     32  C   UNL     1       1.764   9.681   0.775  0.00  0.00    +0.003 C 
ATOM     33  C   UNL     1       3.191   9.759   0.305  0.00  0.00    +0.017 C 
ATOM     34  C   UNL     1       4.086   8.742   0.966  0.00  0.00    +0.072 C 
ENDBRANCH  28  29
ENDBRANCH  27  28
ENDBRANCH  26  27
ENDBRANCH  23  26
ENDBRANCH   2  20
TORSDOF 7
ENDMDL
