MODEL 1
REMARK VINA RESULT:      -9.4      0.000      0.000
REMARK  Name = 
REMARK  5 active torsions:
REMARK  status: ('A' for Active; 'I' for Inactive)
REMARK    1  A    between atoms: C_3  and  C_5
REMARK    2  A    between atoms: C_10  and  S_11
REMARK    3  A    between atoms: S_11  and  C_12
REMARK    4  A    between atoms: C_16  and  C_17
REMARK    5  A    between atoms: C_18  and  C_19
REMARK                            x       y       z     vdW  Elec       q    Type
REMARK                         _______ _______ _______ _____ _____    ______ ____
ROOT
ATOM      1  C   UNL     1       2.564   5.549 -10.013  0.00  0.00    +0.031 A 
ATOM      2  C   UNL     1       2.939   4.495  -9.190  0.00  0.00    +0.027 A 
ATOM      3  C   UNL     1       2.192   4.351  -8.027  0.00  0.00    +0.105 A 
ATOM      4  C   UNL     1       0.991   5.027  -7.841  0.00  0.00    +0.039 A 
ATOM      5  C   UNL     1       0.642   4.954  -6.498  0.00  0.00    +0.104 A 
ATOM      6  N   UNL     1       1.365   3.905  -6.038  0.00  0.00    -0.148 NA
ATOM      7  C   UNL     1       0.435   5.688  -8.903  0.00  0.00    +0.004 A 
ATOM      8  N   UNL     1       2.343   3.621  -6.895  0.00  0.00    -0.148 NA
ATOM      9  C   UNL     1       1.210   5.855 -10.044  0.00  0.00    +0.007 A 
ENDROOT
BRANCH   5  10
ATOM     10  C   UNL     1       0.061   6.057  -5.722  0.00  0.00    +0.023 C 
ATOM     11  C   UNL     1       0.885   7.071  -5.466  0.00  0.00    +0.021 C 
BRANCH  11  12
ATOM     12  C   UNL     1       2.161   6.696  -4.841  0.00  0.00    +0.081 A 
ATOM     13  N   UNL     1       2.258   6.681  -3.490  0.00  0.00    -0.244 NA
ATOM     14  C   UNL     1       3.326   7.145  -2.826  0.00  0.00    +0.099 A 
ATOM     15  C   UNL     1       4.419   7.676  -3.497  0.00  0.00    +0.021 A 
ATOM     16  C   UNL     1       4.471   7.435  -4.858  0.00  0.00    +0.003 A 
ATOM     17  C   UNL     1       3.339   6.976  -5.520  0.00  0.00    +0.019 A 
ENDBRANCH  11  12
ENDBRANCH   5  10
BRANCH   1  18
ATOM     18  S   UNL     1       3.755   6.421 -11.036  0.00  0.00    -0.087 S 
BRANCH  18  20
ATOM     19  C   UNL     1       6.199   5.599 -11.947  0.00  0.00    +0.061 A 
ATOM     20  C   UNL     1       5.379   5.726 -10.836  0.00  0.00    +0.034 A 
ATOM     21  C   UNL     1       5.987   5.902  -9.599  0.00  0.00    +0.007 A 
ATOM     22  C   UNL     1       7.357   5.759  -9.428  0.00  0.00    +0.001 A 
ATOM     23  C   UNL     1       8.078   5.266 -10.494  0.00  0.00    +0.000 A 
ATOM     24  C   UNL     1       7.536   5.334 -11.750  0.00  0.00    +0.005 A 
BRANCH  19  27
ATOM     25  C   UNL     1       4.545   6.592 -15.246  0.00  0.00    +0.139 C 
ATOM     26  N   UNL     1       5.587   6.483 -14.233  0.00  0.00    -0.200 NA
ATOM     27  C   UNL     1       5.552   5.440 -13.252  0.00  0.00    +0.265 C 
ATOM     28  O   UNL     1       4.750   4.492 -13.469  0.00  0.00    -0.268 OA
ENDBRANCH  19  27
ENDBRANCH  18  20
ENDBRANCH   1  18
TORSDOF 5
ENDMDL
MODEL 2
REMARK VINA RESULT:      -9.3      3.601      8.718
REMARK  Name = 
REMARK  5 active torsions:
REMARK  status: ('A' for Active; 'I' for Inactive)
REMARK    1  A    between atoms: C_3  and  C_5
REMARK    2  A    between atoms: C_10  and  S_11
REMARK    3  A    between atoms: S_11  and  C_12
REMARK    4  A    between atoms: C_16  and  C_17
REMARK    5  A    between atoms: C_18  and  C_19
REMARK                            x       y       z     vdW  Elec       q    Type
REMARK                         _______ _______ _______ _____ _____    ______ ____
ROOT
ATOM      1  C   UNL     1       2.383   5.666  -5.174  0.00  0.00    +0.031 A 
ATOM      2  C   UNL     1       2.031   4.540  -5.907  0.00  0.00    +0.027 A 
ATOM      3  C   UNL     1       2.743   4.349  -7.085  0.00  0.00    +0.105 A 
ATOM      4  C   UNL     1       3.903   5.064  -7.363  0.00  0.00    +0.039 A 
ATOM      5  C   UNL     1       4.207   4.913  -8.710  0.00  0.00    +0.104 A 
ATOM      6  N   UNL     1       3.521   3.801  -9.069  0.00  0.00    -0.148 NA
ATOM      7  C   UNL     1       4.462   5.824  -6.372  0.00  0.00    +0.004 A 
ATOM      8  N   UNL     1       2.588   3.534  -8.158  0.00  0.00    -0.148 NA
ATOM      9  C   UNL     1       3.720   6.035  -5.216  0.00  0.00    +0.007 A 
ENDROOT
BRANCH   5  10
ATOM     10  C   UNL     1       4.707   5.983  -9.583  0.00  0.00    +0.023 C 
ATOM     11  C   UNL     1       3.802   6.887  -9.951  0.00  0.00    +0.021 C 
BRANCH  11  12
ATOM     12  C   UNL     1       2.581   6.339 -10.556  0.00  0.00    +0.081 A 
ATOM     13  N   UNL     1       2.544   6.117 -11.892  0.00  0.00    -0.244 NA
ATOM     14  C   UNL     1       1.480   6.404 -12.655  0.00  0.00    +0.099 A 
ATOM     15  C   UNL     1       0.327   6.953 -12.110  0.00  0.00    +0.021 A 
ATOM     16  C   UNL     1       0.230   6.913 -10.730  0.00  0.00    +0.003 A 
ATOM     17  C   UNL     1       1.358   6.635  -9.968  0.00  0.00    +0.019 A 
ENDBRANCH  11  12
ENDBRANCH   5  10
BRANCH   1  18
ATOM     18  S   UNL     1       1.187   6.553  -4.169  0.00  0.00    -0.087 S 
BRANCH  18  20
ATOM     19  C   UNL     1      -1.159   5.625  -3.112  0.00  0.00    +0.061 A 
ATOM     20  C   UNL     1      -0.410   5.780  -4.270  0.00  0.00    +0.034 A 
ATOM     21  C   UNL     1      -1.096   5.916  -5.471  0.00  0.00    +0.007 A 
ATOM     22  C   UNL     1      -2.466   5.706  -5.561  0.00  0.00    +0.001 A 
ATOM     23  C   UNL     1      -3.099   5.190  -4.453  0.00  0.00    +0.000 A 
ATOM     24  C   UNL     1      -2.490   5.295  -3.230  0.00  0.00    +0.005 A 
BRANCH  19  27
ATOM     25  C   UNL     1       0.784   6.719  -0.008  0.00  0.00    +0.139 C 
ATOM     26  N   UNL     1      -0.332   6.614  -0.940  0.00  0.00    -0.200 NA
ATOM     27  C   UNL     1      -0.431   5.509  -1.846  0.00  0.00    +0.265 C 
ATOM     28  O   UNL     1       0.326   4.526  -1.618  0.00  0.00    -0.268 OA
ENDBRANCH  19  27
ENDBRANCH  18  20
ENDBRANCH   1  18
TORSDOF 5
ENDMDL
MODEL 3
REMARK VINA RESULT:      -9.1      3.548      8.778
REMARK  Name = 
REMARK  5 active torsions:
REMARK  status: ('A' for Active; 'I' for Inactive)
REMARK    1  A    between atoms: C_3  and  C_5
REMARK    2  A    between atoms: C_10  and  S_11
REMARK    3  A    between atoms: S_11  and  C_12
REMARK    4  A    between atoms: C_16  and  C_17
REMARK    5  A    between atoms: C_18  and  C_19
REMARK                            x       y       z     vdW  Elec       q    Type
REMARK                         _______ _______ _______ _____ _____    ______ ____
ROOT
ATOM      1  C   UNL     1       2.734   5.224  -5.359  0.00  0.00    +0.031 A 
ATOM      2  C   UNL     1       2.325   4.276  -6.287  0.00  0.00    +0.027 A 
ATOM      3  C   UNL     1       2.815   4.452  -7.576  0.00  0.00    +0.105 A 
ATOM      4  C   UNL     1       3.853   5.336  -7.848  0.00  0.00    +0.039 A 
ATOM      5  C   UNL     1       3.910   5.546  -9.220  0.00  0.00    +0.104 A 
ATOM      6  N   UNL     1       3.242   4.485  -9.733  0.00  0.00    -0.148 NA
ATOM      7  C   UNL     1       4.538   5.892  -6.802  0.00  0.00    +0.004 A 
ATOM      8  N   UNL     1       2.516   3.906  -8.780  0.00  0.00    -0.148 NA
ATOM      9  C   UNL     1       4.013   5.737  -5.525  0.00  0.00    +0.007 A 
ENDROOT
BRANCH   5  10
ATOM     10  C   UNL     1       4.167   6.843  -9.860  0.00  0.00    +0.023 C 
ATOM     11  C   UNL     1       4.684   6.782 -11.085  0.00  0.00    +0.021 C 
BRANCH  11  12
ATOM     12  C   UNL     1       5.898   5.963 -11.211  0.00  0.00    +0.081 A 
ATOM     13  N   UNL     1       6.983   6.265 -10.460  0.00  0.00    -0.244 NA
ATOM     14  C   UNL     1       8.236   6.236 -10.936  0.00  0.00    +0.099 A 
ATOM     15  C   UNL     1       8.501   5.883 -12.252  0.00  0.00    +0.021 A 
ATOM     16  C   UNL     1       7.458   5.293 -12.944  0.00  0.00    +0.003 A 
ATOM     17  C   UNL     1       6.167   5.362 -12.434  0.00  0.00    +0.019 A 
ENDBRANCH  11  12
ENDBRANCH   5  10
BRANCH   1  18
ATOM     18  S   UNL     1       1.692   5.707  -3.977  0.00  0.00    -0.087 S 
BRANCH  18  20
ATOM     19  C   UNL     1      -0.975   5.656  -3.377  0.00  0.00    +0.061 A 
ATOM     20  C   UNL     1      -0.020   5.421  -4.356  0.00  0.00    +0.034 A 
ATOM     21  C   UNL     1      -0.402   5.576  -5.683  0.00  0.00    +0.007 A 
ATOM     22  C   UNL     1      -1.729   5.759  -6.048  0.00  0.00    +0.001 A 
ATOM     23  C   UNL     1      -2.681   5.611  -5.063  0.00  0.00    +0.000 A 
ATOM     24  C   UNL     1      -2.300   5.710  -3.751  0.00  0.00    +0.005 A 
BRANCH  19  27
ATOM     25  C   UNL     1       0.377   6.662   0.052  0.00  0.00    +0.139 C 
ATOM     26  N   UNL     1      -0.515   6.646  -1.100  0.00  0.00    -0.200 NA
ATOM     27  C   UNL     1      -0.560   5.516  -1.979  0.00  0.00    +0.265 C 
ATOM     28  O   UNL     1      -0.007   4.461  -1.566  0.00  0.00    -0.268 OA
ENDBRANCH  19  27
ENDBRANCH  18  20
ENDBRANCH   1  18
TORSDOF 5
ENDMDL
MODEL 4
REMARK VINA RESULT:      -9.0      1.626      2.628
REMARK  Name = 
REMARK  5 active torsions:
REMARK  status: ('A' for Active; 'I' for Inactive)
REMARK    1  A    between atoms: C_3  and  C_5
REMARK    2  A    between atoms: C_10  and  S_11
REMARK    3  A    between atoms: S_11  and  C_12
REMARK    4  A    between atoms: C_16  and  C_17
REMARK    5  A    between atoms: C_18  and  C_19
REMARK                            x       y       z     vdW  Elec       q    Type
REMARK                         _______ _______ _______ _____ _____    ______ ____
ROOT
ATOM      1  C   UNL     1       2.531   5.802  -9.933  0.00  0.00    +0.031 A 
ATOM      2  C   UNL     1       2.585   4.563  -9.310  0.00  0.00    +0.027 A 
ATOM      3  C   UNL     1       2.216   4.553  -7.969  0.00  0.00    +0.105 A 
ATOM      4  C   UNL     1       1.575   5.636  -7.380  0.00  0.00    +0.039 A 
ATOM      5  C   UNL     1       1.624   5.485  -5.999  0.00  0.00    +0.104 A 
ATOM      6  N   UNL     1       1.870   4.164  -5.832  0.00  0.00    -0.148 NA
ATOM      7  C   UNL     1       1.120   6.649  -8.180  0.00  0.00    +0.004 A 
ATOM      8  N   UNL     1       2.319   3.641  -6.971  0.00  0.00    -0.148 NA
ATOM      9  C   UNL     1       1.529   6.663  -9.508  0.00  0.00    +0.007 A 
ENDROOT
BRANCH   5  10
ATOM     10  C   UNL     1       1.868   6.575  -5.045  0.00  0.00    +0.023 C 
ATOM     11  C   UNL     1       1.216   6.476  -3.888  0.00  0.00    +0.021 C 
BRANCH  11  12
ATOM     12  C   UNL     1      -0.237   6.287  -4.004  0.00  0.00    +0.081 A 
ATOM     13  N   UNL     1      -1.010   7.320  -4.418  0.00  0.00    -0.244 NA
ATOM     14  C   UNL     1      -2.196   7.615  -3.868  0.00  0.00    +0.099 A 
ATOM     15  C   UNL     1      -2.716   6.863  -2.824  0.00  0.00    +0.021 A 
ATOM     16  C   UNL     1      -2.098   5.647  -2.586  0.00  0.00    +0.003 A 
ATOM     17  C   UNL     1      -0.858   5.382  -3.152  0.00  0.00    +0.019 A 
ENDBRANCH  11  12
ENDBRANCH   5  10
BRANCH   1  18
ATOM     18  S   UNL     1       3.651   6.239 -11.268  0.00  0.00    -0.087 S 
BRANCH  18  20
ATOM     19  C   UNL     1       6.234   5.646 -11.942  0.00  0.00    +0.061 A 
ATOM     20  C   UNL     1       5.293   5.656 -10.922  0.00  0.00    +0.034 A 
ATOM     21  C   UNL     1       5.752   5.813  -9.620  0.00  0.00    +0.007 A 
ATOM     22  C   UNL     1       7.104   5.762  -9.307  0.00  0.00    +0.001 A 
ATOM     23  C   UNL     1       7.969   5.377 -10.308  0.00  0.00    +0.000 A 
ATOM     24  C   UNL     1       7.559   5.469 -11.612  0.00  0.00    +0.005 A 
BRANCH  19  27
ATOM     25  C   UNL     1       4.902   6.684 -15.370  0.00  0.00    +0.139 C 
ATOM     26  N   UNL     1       5.831   6.586 -14.251  0.00  0.00    -0.200 NA
ATOM     27  C   UNL     1       5.742   5.506 -13.315  0.00  0.00    +0.265 C 
ATOM     28  O   UNL     1       5.018   4.529 -13.651  0.00  0.00    -0.268 OA
ENDBRANCH  19  27
ENDBRANCH  18  20
ENDBRANCH   1  18
TORSDOF 5
ENDMDL
MODEL 5
REMARK VINA RESULT:      -9.0      3.929      6.277
REMARK  Name = 
REMARK  5 active torsions:
REMARK  status: ('A' for Active; 'I' for Inactive)
REMARK    1  A    between atoms: C_3  and  C_5
REMARK    2  A    between atoms: C_10  and  S_11
REMARK    3  A    between atoms: S_11  and  C_12
REMARK    4  A    between atoms: C_16  and  C_17
REMARK    5  A    between atoms: C_18  and  C_19
REMARK                            x       y       z     vdW  Elec       q    Type
REMARK                         _______ _______ _______ _____ _____    ______ ____
ROOT
ATOM      1  C   UNL     1       3.752   6.055  -5.849  0.00  0.00    +0.031 A 
ATOM      2  C   UNL     1       3.791   7.279  -5.194  0.00  0.00    +0.027 A 
ATOM      3  C   UNL     1       3.987   7.214  -3.819  0.00  0.00    +0.105 A 
ATOM      4  C   UNL     1       4.395   6.041  -3.194  0.00  0.00    +0.039 A 
ATOM      5  C   UNL     1       4.195   6.173  -1.825  0.00  0.00    +0.104 A 
ATOM      6  N   UNL     1       4.113   7.513  -1.643  0.00  0.00    -0.148 NA
ATOM      7  C   UNL     1       4.804   4.989  -3.967  0.00  0.00    +0.004 A 
ATOM      8  N   UNL     1       3.886   8.113  -2.809  0.00  0.00    -0.148 NA
ATOM      9  C   UNL     1       4.566   5.055  -5.335  0.00  0.00    +0.007 A 
ENDROOT
BRANCH   5  10
ATOM     10  C   UNL     1       3.687   5.112  -0.945  0.00  0.00    +0.023 C 
ATOM     11  C   UNL     1       2.395   4.825  -1.085  0.00  0.00    +0.021 C 
BRANCH  11  12
ATOM     12  C   UNL     1       1.485   5.975  -0.984  0.00  0.00    +0.081 A 
ATOM     13  N   UNL     1       1.245   6.526   0.230  0.00  0.00    -0.244 NA
ATOM     14  C   UNL     1       0.028   6.924   0.627  0.00  0.00    +0.099 A 
ATOM     15  C   UNL     1      -1.080   6.795  -0.199  0.00  0.00    +0.021 A 
ATOM     16  C   UNL     1      -0.815   6.516  -1.529  0.00  0.00    +0.003 A 
ATOM     17  C   UNL     1       0.450   6.084  -1.904  0.00  0.00    +0.019 A 
ENDBRANCH  11  12
ENDBRANCH   5  10
BRANCH   1  18
ATOM     18  S   UNL     1       2.758   5.802  -7.324  0.00  0.00    -0.087 S 
BRANCH  18  20
ATOM     19  C   UNL     1       0.096   5.547  -7.892  0.00  0.00    +0.061 A 
ATOM     20  C   UNL     1       1.028   5.938  -6.942  0.00  0.00    +0.034 A 
ATOM     21  C   UNL     1       0.672   5.830  -5.603  0.00  0.00    +0.007 A 
ATOM     22  C   UNL     1      -0.627   5.537  -5.211  0.00  0.00    +0.001 A 
ATOM     23  C   UNL     1      -1.595   5.526  -6.191  0.00  0.00    +0.000 A 
ATOM     24  C   UNL     1      -1.214   5.383  -7.499  0.00  0.00    +0.005 A 
BRANCH  19  27
ATOM     25  C   UNL     1       0.338   6.958 -11.435  0.00  0.00    +0.139 C 
ATOM     26  N   UNL     1       0.504   6.895  -9.988  0.00  0.00    -0.200 NA
ATOM     27  C   UNL     1       0.486   5.638  -9.301  0.00  0.00    +0.265 C 
ATOM     28  O   UNL     1       0.589   4.605 -10.017  0.00  0.00    -0.268 OA
ENDBRANCH  19  27
ENDBRANCH  18  20
ENDBRANCH   1  18
TORSDOF 5
ENDMDL
MODEL 6
REMARK VINA RESULT:      -8.9      2.973      5.037
REMARK  Name = 
REMARK  5 active torsions:
REMARK  status: ('A' for Active; 'I' for Inactive)
REMARK    1  A    between atoms: C_3  and  C_5
REMARK    2  A    between atoms: C_10  and  S_11
REMARK    3  A    between atoms: S_11  and  C_12
REMARK    4  A    between atoms: C_16  and  C_17
REMARK    5  A    between atoms: C_18  and  C_19
REMARK                            x       y       z     vdW  Elec       q    Type
REMARK                         _______ _______ _______ _____ _____    ______ ____
ROOT
ATOM      1  C   UNL     1       3.933   5.578  -5.693  0.00  0.00    +0.031 A 
ATOM      2  C   UNL     1       3.795   6.888  -5.255  0.00  0.00    +0.027 A 
ATOM      3  C   UNL     1       3.851   7.066  -3.878  0.00  0.00    +0.105 A 
ATOM      4  C   UNL     1       4.292   6.058  -3.028  0.00  0.00    +0.039 A 
ATOM      5  C   UNL     1       3.938   6.388  -1.725  0.00  0.00    +0.104 A 
ATOM      6  N   UNL     1       3.720   7.724  -1.783  0.00  0.00    -0.148 NA
ATOM      7  C   UNL     1       4.870   4.943  -3.571  0.00  0.00    +0.004 A 
ATOM      8  N   UNL     1       3.565   8.101  -3.050  0.00  0.00    -0.148 NA
ATOM      9  C   UNL     1       4.773   4.763  -4.945  0.00  0.00    +0.007 A 
ENDROOT
BRANCH   5  10
ATOM     10  C   UNL     1       3.435   5.435  -0.726  0.00  0.00    +0.023 C 
ATOM     11  C   UNL     1       2.330   4.778  -1.071  0.00  0.00    +0.021 C 
BRANCH  11  12
ATOM     12  C   UNL     1       1.208   5.624  -1.499  0.00  0.00    +0.081 A 
ATOM     13  N   UNL     1       0.407   6.188  -0.564  0.00  0.00    -0.244 NA
ATOM     14  C   UNL     1      -0.926   6.255  -0.682  0.00  0.00    +0.099 A 
ATOM     15  C   UNL     1      -1.579   5.742  -1.795  0.00  0.00    +0.021 A 
ATOM     16  C   UNL     1      -0.777   5.434  -2.880  0.00  0.00    +0.003 A 
ATOM     17  C   UNL     1       0.599   5.351  -2.718  0.00  0.00    +0.019 A 
ENDBRANCH  11  12
ENDBRANCH   5  10
BRANCH   1  18
ATOM     18  S   UNL     1       3.126   4.988  -7.186  0.00  0.00    -0.087 S 
BRANCH  18  20
ATOM     19  C   UNL     1       3.667   6.445  -9.437  0.00  0.00    +0.061 A 
ATOM     20  C   UNL     1       4.087   5.404  -8.622  0.00  0.00    +0.034 A 
ATOM     21  C   UNL     1       5.451   5.141  -8.560  0.00  0.00    +0.007 A 
ATOM     22  C   UNL     1       6.355   5.747  -9.422  0.00  0.00    +0.001 A 
ATOM     23  C   UNL     1       5.836   6.492 -10.458  0.00  0.00    +0.000 A 
ATOM     24  C   UNL     1       4.547   6.946 -10.370  0.00  0.00    +0.005 A 
BRANCH  19  27
ATOM     25  C   UNL     1       0.163   6.882 -10.899  0.00  0.00    +0.139 C 
ATOM     26  N   UNL     1       1.394   6.204 -10.513  0.00  0.00    -0.200 NA
ATOM     27  C   UNL     1       2.231   6.734  -9.478  0.00  0.00    +0.265 C 
ATOM     28  O   UNL     1       1.728   7.637  -8.756  0.00  0.00    -0.268 OA
ENDBRANCH  19  27
ENDBRANCH  18  20
ENDBRANCH   1  18
TORSDOF 5
ENDMDL
MODEL 7
REMARK VINA RESULT:      -8.7      2.154      3.216
REMARK  Name = 
REMARK  5 active torsions:
REMARK  status: ('A' for Active; 'I' for Inactive)
REMARK    1  A    between atoms: C_3  and  C_5
REMARK    2  A    between atoms: C_10  and  S_11
REMARK    3  A    between atoms: S_11  and  C_12
REMARK    4  A    between atoms: C_16  and  C_17
REMARK    5  A    between atoms: C_18  and  C_19
REMARK                            x       y       z     vdW  Elec       q    Type
REMARK                         _______ _______ _______ _____ _____    ______ ____
ROOT
ATOM      1  C   UNL     1       3.299   5.785  -9.374  0.00  0.00    +0.031 A 
ATOM      2  C   UNL     1       3.262   6.831  -8.462  0.00  0.00    +0.027 A 
ATOM      3  C   UNL     1       2.225   6.781  -7.538  0.00  0.00    +0.105 A 
ATOM      4  C   UNL     1       1.459   5.635  -7.360  0.00  0.00    +0.039 A 
ATOM      5  C   UNL     1       0.321   5.967  -6.635  0.00  0.00    +0.104 A 
ATOM      6  N   UNL     1       0.654   7.138  -6.040  0.00  0.00    -0.148 NA
ATOM      7  C   UNL     1       1.862   4.473  -7.961  0.00  0.00    +0.004 A 
ATOM      8  N   UNL     1       1.715   7.666  -6.645  0.00  0.00    -0.148 NA
ATOM      9  C   UNL     1       2.874   4.547  -8.909  0.00  0.00    +0.007 A 
ENDROOT
BRANCH   5  10
ATOM     10  C   UNL     1      -1.024   5.440  -6.898  0.00  0.00    +0.023 C 
ATOM     11  C   UNL     1      -2.011   6.042  -6.237  0.00  0.00    +0.021 C 
BRANCH  11  12
ATOM     12  C   UNL     1      -1.830   6.123  -4.781  0.00  0.00    +0.081 A 
ATOM     13  N   UNL     1      -2.298   5.122  -3.997  0.00  0.00    -0.244 NA
ATOM     14  C   UNL     1      -2.922   5.335  -2.830  0.00  0.00    +0.099 A 
ATOM     15  C   UNL     1      -3.125   6.619  -2.343  0.00  0.00    +0.021 A 
ATOM     16  C   UNL     1      -2.406   7.625  -2.966  0.00  0.00    +0.003 A 
ATOM     17  C   UNL     1      -1.791   7.378  -4.187  0.00  0.00    +0.019 A 
ENDBRANCH  11  12
ENDBRANCH   5  10
BRANCH   1  18
ATOM     18  S   UNL     1       3.929   6.004 -11.041  0.00  0.00    -0.087 S 
BRANCH  18  20
ATOM     19  C   UNL     1       6.311   5.651 -12.339  0.00  0.00    +0.061 A 
ATOM     20  C   UNL     1       5.649   5.564 -11.123  0.00  0.00    +0.034 A 
ATOM     21  C   UNL     1       6.396   5.746  -9.965  0.00  0.00    +0.007 A 
ATOM     22  C   UNL     1       7.783   5.811  -9.990  0.00  0.00    +0.001 A 
ATOM     23  C   UNL     1       8.407   5.518 -11.182  0.00  0.00    +0.000 A 
ATOM     24  C   UNL     1       7.686   5.589 -12.345  0.00  0.00    +0.005 A 
BRANCH  19  27
ATOM     25  C   UNL     1       4.216   6.625 -15.383  0.00  0.00    +0.139 C 
ATOM     26  N   UNL     1       5.380   6.547 -14.510  0.00  0.00    -0.200 NA
ATOM     27  C   UNL     1       5.513   5.486 -13.556  0.00  0.00    +0.265 C 
ATOM     28  O   UNL     1       4.731   4.506 -13.694  0.00  0.00    -0.268 OA
ENDBRANCH  19  27
ENDBRANCH  18  20
ENDBRANCH   1  18
TORSDOF 5
ENDMDL
MODEL 8
REMARK VINA RESULT:      -8.6      4.440      6.380
REMARK  Name = 
REMARK  5 active torsions:
REMARK  status: ('A' for Active; 'I' for Inactive)
REMARK    1  A    between atoms: C_3  and  C_5
REMARK    2  A    between atoms: C_10  and  S_11
REMARK    3  A    between atoms: S_11  and  C_12
REMARK    4  A    between atoms: C_16  and  C_17
REMARK    5  A    between atoms: C_18  and  C_19
REMARK                            x       y       z     vdW  Elec       q    Type
REMARK                         _______ _______ _______ _____ _____    ______ ____
ROOT
ATOM      1  C   UNL     1      -1.423   6.003  -5.777  0.00  0.00    +0.031 A 
ATOM      2  C   UNL     1      -2.372   5.295  -5.054  0.00  0.00    +0.027 A 
ATOM      3  C   UNL     1      -2.314   5.456  -3.674  0.00  0.00    +0.105 A 
ATOM      4  C   UNL     1      -1.554   6.461  -3.087  0.00  0.00    +0.039 A 
ATOM      5  C   UNL     1      -1.423   6.186  -1.732  0.00  0.00    +0.104 A 
ATOM      6  N   UNL     1      -2.438   5.324  -1.482  0.00  0.00    -0.148 NA
ATOM      7  C   UNL     1      -1.015   7.432  -3.886  0.00  0.00    +0.004 A 
ATOM      8  N   UNL     1      -2.890   4.817  -2.626  0.00  0.00    -0.148 NA
ATOM      9  C   UNL     1      -1.049   7.237  -5.261  0.00  0.00    +0.007 A 
ENDROOT
BRANCH   5  10
ATOM     10  C   UNL     1      -0.194   6.380  -0.952  0.00  0.00    +0.023 C 
ATOM     11  C   UNL     1      -0.375   6.703   0.327  0.00  0.00    +0.021 C 
BRANCH  11  12
ATOM     12  C   UNL     1      -1.251   7.859   0.562  0.00  0.00    +0.081 A 
ATOM     13  N   UNL     1      -0.704   9.091   0.690  0.00  0.00    -0.244 NA
ATOM     14  C   UNL     1      -1.111   9.984   1.602  0.00  0.00    +0.099 A 
ATOM     15  C   UNL     1      -2.142   9.695   2.486  0.00  0.00    +0.021 A 
ATOM     16  C   UNL     1      -2.903   8.578   2.186  0.00  0.00    +0.003 A 
ATOM     17  C   UNL     1      -2.440   7.660   1.252  0.00  0.00    +0.019 A 
ENDBRANCH  11  12
ENDBRANCH   5  10
BRANCH   1  18
ATOM     18  S   UNL     1      -0.766   5.390  -7.332  0.00  0.00    -0.087 S 
BRANCH  18  20
ATOM     19  C   UNL     1       1.833   5.740  -8.109  0.00  0.00    +0.061 A 
ATOM     20  C   UNL     1       0.985   5.115  -7.206  0.00  0.00    +0.034 A 
ATOM     21  C   UNL     1       1.484   4.830  -5.941  0.00  0.00    +0.007 A 
ATOM     22  C   UNL     1       2.832   4.971  -5.635  0.00  0.00    +0.001 A 
ATOM     23  C   UNL     1       3.691   5.240  -6.677  0.00  0.00    +0.000 A 
ATOM     24  C   UNL     1       3.183   5.757  -7.840  0.00  0.00    +0.005 A 
BRANCH  19  27
ATOM     25  C   UNL     1       1.206   5.441 -11.867  0.00  0.00    +0.139 C 
ATOM     26  N   UNL     1       1.196   5.066 -10.459  0.00  0.00    -0.200 NA
ATOM     27  C   UNL     1       1.293   6.061  -9.433  0.00  0.00    +0.265 C 
ATOM     28  O   UNL     1       1.118   7.257  -9.792  0.00  0.00    -0.268 OA
ENDBRANCH  19  27
ENDBRANCH  18  20
ENDBRANCH   1  18
TORSDOF 5
ENDMDL
MODEL 9
REMARK VINA RESULT:      -8.6      1.843      2.953
REMARK  Name = 
REMARK  5 active torsions:
REMARK  status: ('A' for Active; 'I' for Inactive)
REMARK    1  A    between atoms: C_3  and  C_5
REMARK    2  A    between atoms: C_10  and  S_11
REMARK    3  A    between atoms: S_11  and  C_12
REMARK    4  A    between atoms: C_16  and  C_17
REMARK    5  A    between atoms: C_18  and  C_19
REMARK                            x       y       z     vdW  Elec       q    Type
REMARK                         _______ _______ _______ _____ _____    ______ ____
ROOT
ATOM      1  C   UNL     1       2.852   5.596  -8.499  0.00  0.00    +0.031 A 
ATOM      2  C   UNL     1       2.719   4.651  -7.490  0.00  0.00    +0.027 A 
ATOM      3  C   UNL     1       3.057   5.088  -6.214  0.00  0.00    +0.105 A 
ATOM      4  C   UNL     1       3.239   6.437  -5.928  0.00  0.00    +0.039 A 
ATOM      5  C   UNL     1       3.874   6.549  -4.698  0.00  0.00    +0.104 A 
ATOM      6  N   UNL     1       3.646   5.349  -4.111  0.00  0.00    -0.148 NA
ATOM      7  C   UNL     1       2.883   7.364  -6.869  0.00  0.00    +0.004 A 
ATOM      8  N   UNL     1       3.265   4.464  -5.029  0.00  0.00    -0.148 NA
ATOM      9  C   UNL     1       2.585   6.912  -8.149  0.00  0.00    +0.007 A 
ENDROOT
BRANCH   5  10
ATOM     10  C   UNL     1       4.934   7.517  -4.386  0.00  0.00    +0.023 C 
ATOM     11  C   UNL     1       5.412   7.459  -3.145  0.00  0.00    +0.021 C 
BRANCH  11  12
ATOM     12  C   UNL     1       4.401   7.531  -2.081  0.00  0.00    +0.081 A 
ATOM     13  N   UNL     1       3.779   8.709  -1.836  0.00  0.00    -0.244 NA
ATOM     14  C   UNL     1       3.526   9.162  -0.601  0.00  0.00    +0.099 A 
ATOM     15  C   UNL     1       3.889   8.434   0.524  0.00  0.00    +0.021 A 
ATOM     16  C   UNL     1       4.250   7.117   0.304  0.00  0.00    +0.003 A 
ATOM     17  C   UNL     1       4.529   6.685  -0.987  0.00  0.00    +0.019 A 
ENDBRANCH  11  12
ENDBRANCH   5  10
BRANCH   1  18
ATOM     18  S   UNL     1       3.276   5.131 -10.181  0.00  0.00    -0.087 S 
BRANCH  18  20
ATOM     19  C   UNL     1       5.458   5.763 -11.704  0.00  0.00    +0.061 A 
ATOM     20  C   UNL     1       5.020   5.326 -10.463  0.00  0.00    +0.034 A 
ATOM     21  C   UNL     1       5.802   5.633  -9.356  0.00  0.00    +0.007 A 
ATOM     22  C   UNL     1       7.073   6.177  -9.483  0.00  0.00    +0.001 A 
ATOM     23  C   UNL     1       7.606   6.245 -10.752  0.00  0.00    +0.000 A 
ATOM     24  C   UNL     1       6.763   6.183 -11.830  0.00  0.00    +0.005 A 
BRANCH  19  27
ATOM     25  C   UNL     1       2.358   5.712 -13.938  0.00  0.00    +0.139 C 
ATOM     26  N   UNL     1       3.480   6.267 -13.192  0.00  0.00    -0.200 NA
ATOM     27  C   UNL     1       4.616   5.459 -12.864  0.00  0.00    +0.265 C 
ATOM     28  O   UNL     1       4.714   4.357 -13.469  0.00  0.00    -0.268 OA
ENDBRANCH  19  27
ENDBRANCH  18  20
ENDBRANCH   1  18
TORSDOF 5
ENDMDL
