MODEL 1
REMARK VINA RESULT:      -8.7      0.000      0.000
REMARK  Name = 
REMARK  10 active torsions:
REMARK  status: ('A' for Active; 'I' for Inactive)
REMARK    1  A    between atoms: C_2  and  C_3
REMARK    2  A    between atoms: C_3  and  C_4
REMARK    3  A    between atoms: C_4  and  C_5
REMARK    4  A    between atoms: N_7  and  C_8
REMARK    5  A    between atoms: N_7  and  C_26
REMARK    6  A    between atoms: C_8  and  C_9
REMARK    7  A    between atoms: C_12  and  C_13
REMARK    8  A    between atoms: C_18  and  C_19
REMARK    9  A    between atoms: C_26  and  C_27
REMARK   10  A    between atoms: C_26  and  C_30
REMARK                            x       y       z     vdW  Elec       q    Type
REMARK                         _______ _______ _______ _____ _____    ______ ____
ROOT
ATOM      1  C   UNL     1       3.500   5.475  -8.166  0.00  0.00    -0.002 A 
ATOM      2  C   UNL     1       3.265   6.519  -9.022  0.00  0.00    -0.003 A 
ATOM      3  C   UNL     1       4.135   6.790 -10.044  0.00  0.00    -0.000 A 
ATOM      4  C   UNL     1       5.168   5.911 -10.322  0.00  0.00    -0.001 A 
ATOM      5  C   UNL     1       5.543   5.048  -9.313  0.00  0.00    -0.000 A 
ATOM      6  C   UNL     1       4.733   4.860  -8.210  0.00  0.00    -0.003 A 
ENDROOT
BRANCH   4   7
ATOM      7  C   UNL     1       6.211   6.285 -11.273  0.00  0.00    -0.006 A 
ATOM      8  C   UNL     1       6.148   5.698 -12.524  0.00  0.00    -0.015 A 
ATOM      9  C   UNL     1       7.289   5.639 -13.316  0.00  0.00    -0.007 A 
ATOM     10  C   UNL     1       8.529   5.741 -12.704  0.00  0.00    -0.001 A 
ATOM     11  C   UNL     1       8.571   6.473 -11.534  0.00  0.00    -0.000 A 
ATOM     12  C   UNL     1       7.408   6.866 -10.882  0.00  0.00    -0.001 A 
BRANCH   8  13
ATOM     13  C   UNL     1       4.856   5.484 -13.161  0.00  0.00    +0.044 A 
ATOM     14  N   UNL     1       4.174   6.413 -13.873  0.00  0.00    -0.289 NA
ATOM     15  N   UNL     1       3.321   5.792 -14.653  0.00  0.00    -0.218 NA
ATOM     16  N   UNL     1       3.218   4.550 -14.239  0.00  0.00    -0.218 NA
ATOM     17  N   UNL     1       4.318   4.309 -13.547  0.00  0.00    -0.289 NA
ENDBRANCH   8  13
ENDBRANCH   4   7
BRANCH   1  18
ATOM     18  C   UNL     1       2.422   4.890  -7.324  0.00  0.00    +0.121 C 
BRANCH  18  20
ATOM     19  C   UNL     1       3.073   6.451  -5.582  0.00  0.00    +0.226 C 
ATOM     20  N   UNL     1       2.047   5.855  -6.290  0.00  0.00    -0.267 N 
ATOM     21  O   UNL     1       3.519   7.607  -5.677  0.00  0.00    -0.275 OA
BRANCH  20  22
ATOM     22  C   UNL     1       0.840   6.703  -6.832  0.00  0.00    +0.179 C 
BRANCH  22  23
ATOM     23  C   UNL     1       0.156   5.380  -7.540  0.00  0.00    +0.029 C 
ATOM     24  C   UNL     1      -0.058   5.712  -8.981  0.00  0.00    +0.002 C 
ATOM     25  C   UNL     1      -1.112   5.118  -6.785  0.00  0.00    +0.002 C 
ENDBRANCH  22  23
BRANCH  22  26
ATOM     26  C   UNL     1      -0.034   6.609  -5.474  0.00  0.00    +0.382 C 
ATOM     27  O   UNL     1       0.860   6.073  -4.522  0.00  0.00    -0.244 OA
ATOM     28  O   UNL     1      -0.460   7.711  -5.011  0.00  0.00    -0.244 OA
ENDBRANCH  22  26
ENDBRANCH  20  22
BRANCH  19  29
ATOM     29  C   UNL     1       4.000   5.461  -4.942  0.00  0.00    +0.085 C 
BRANCH  29  30
ATOM     30  C   UNL     1       4.974   6.153  -4.032  0.00  0.00    +0.010 C 
BRANCH  30  32
ATOM     31  C   UNL     1       3.933   4.877  -2.253  0.00  0.00    +0.000 C 
ATOM     32  C   UNL     1       4.330   6.290  -2.658  0.00  0.00    +0.001 C 
ENDBRANCH  30  32
ENDBRANCH  29  30
ENDBRANCH  19  29
ENDBRANCH  18  20
ENDBRANCH   1  18
TORSDOF 10
ENDMDL
MODEL 2
REMARK VINA RESULT:      -8.3      3.331      9.393
REMARK  Name = 
REMARK  10 active torsions:
REMARK  status: ('A' for Active; 'I' for Inactive)
REMARK    1  A    between atoms: C_2  and  C_3
REMARK    2  A    between atoms: C_3  and  C_4
REMARK    3  A    between atoms: C_4  and  C_5
REMARK    4  A    between atoms: N_7  and  C_8
REMARK    5  A    between atoms: N_7  and  C_26
REMARK    6  A    between atoms: C_8  and  C_9
REMARK    7  A    between atoms: C_12  and  C_13
REMARK    8  A    between atoms: C_18  and  C_19
REMARK    9  A    between atoms: C_26  and  C_27
REMARK   10  A    between atoms: C_26  and  C_30
REMARK                            x       y       z     vdW  Elec       q    Type
REMARK                         _______ _______ _______ _____ _____    ______ ____
ROOT
ATOM      1  C   UNL     1       1.299   5.427  -6.930  0.00  0.00    -0.002 A 
ATOM      2  C   UNL     1       1.625   6.561  -6.234  0.00  0.00    -0.003 A 
ATOM      3  C   UNL     1       0.870   6.963  -5.165  0.00  0.00    -0.000 A 
ATOM      4  C   UNL     1      -0.129   6.138  -4.677  0.00  0.00    -0.001 A 
ATOM      5  C   UNL     1      -0.611   5.167  -5.531  0.00  0.00    -0.000 A 
ATOM      6  C   UNL     1       0.077   4.839  -6.684  0.00  0.00    -0.003 A 
ENDROOT
BRANCH   4   7
ATOM      7  C   UNL     1      -1.064   6.636  -3.672  0.00  0.00    -0.006 A 
ATOM      8  C   UNL     1      -1.013   6.036  -2.427  0.00  0.00    -0.015 A 
ATOM      9  C   UNL     1      -2.109   6.117  -1.577  0.00  0.00    -0.007 A 
ATOM     10  C   UNL     1      -3.356   6.384  -2.122  0.00  0.00    -0.001 A 
ATOM     11  C   UNL     1      -3.363   7.125  -3.287  0.00  0.00    -0.000 A 
ATOM     12  C   UNL     1      -2.195   7.370  -3.999  0.00  0.00    -0.001 A 
BRANCH   8  13
ATOM     13  C   UNL     1       0.271   5.650  -1.859  0.00  0.00    +0.044 A 
ATOM     14  N   UNL     1       1.151   6.499  -1.272  0.00  0.00    -0.289 NA
ATOM     15  N   UNL     1       1.947   5.798  -0.500  0.00  0.00    -0.218 NA
ATOM     16  N   UNL     1       1.812   4.531  -0.815  0.00  0.00    -0.218 NA
ATOM     17  N   UNL     1       0.637   4.432  -1.412  0.00  0.00    -0.289 NA
ENDBRANCH   8  13
ENDBRANCH   4   7
BRANCH   1  18
ATOM     18  C   UNL     1       2.280   4.732  -7.806  0.00  0.00    +0.121 C 
BRANCH  18  20
ATOM     19  C   UNL     1       1.491   6.049  -9.687  0.00  0.00    +0.226 C 
ATOM     20  N   UNL     1       2.570   5.579  -8.964  0.00  0.00    -0.267 N 
ATOM     21  O   UNL     1       1.004   7.192  -9.709  0.00  0.00    -0.275 OA
BRANCH  20  22
ATOM     22  C   UNL     1       3.765   6.527  -8.584  0.00  0.00    +0.179 C 
BRANCH  22  23
ATOM     23  C   UNL     1       4.580   5.298  -7.847  0.00  0.00    +0.029 C 
ATOM     24  C   UNL     1       4.836   5.722  -6.437  0.00  0.00    +0.002 C 
ATOM     25  C   UNL     1       5.827   5.089  -8.652  0.00  0.00    +0.002 C 
ENDBRANCH  22  23
BRANCH  22  26
ATOM     26  C   UNL     1       4.531   6.381 -10.001  0.00  0.00    +0.382 C 
ATOM     27  O   UNL     1       3.727   5.487 -10.740  0.00  0.00    -0.244 OA
ATOM     28  O   UNL     1       4.639   7.443 -10.685  0.00  0.00    -0.244 OA
ENDBRANCH  22  26
ENDBRANCH  20  22
BRANCH  19  29
ATOM     29  C   UNL     1       0.578   4.957 -10.161  0.00  0.00    +0.085 C 
BRANCH  29  30
ATOM     30  C   UNL     1      -0.143   5.371 -11.411  0.00  0.00    +0.010 C 
BRANCH  30  32
ATOM     31  C   UNL     1       0.939   6.298 -13.373  0.00  0.00    +0.000 C 
ATOM     32  C   UNL     1       0.722   4.999 -12.609  0.00  0.00    +0.001 C 
ENDBRANCH  30  32
ENDBRANCH  29  30
ENDBRANCH  19  29
ENDBRANCH  18  20
ENDBRANCH   1  18
TORSDOF 10
ENDMDL
MODEL 3
REMARK VINA RESULT:      -8.2      2.252      4.437
REMARK  Name = 
REMARK  10 active torsions:
REMARK  status: ('A' for Active; 'I' for Inactive)
REMARK    1  A    between atoms: C_2  and  C_3
REMARK    2  A    between atoms: C_3  and  C_4
REMARK    3  A    between atoms: C_4  and  C_5
REMARK    4  A    between atoms: N_7  and  C_8
REMARK    5  A    between atoms: N_7  and  C_26
REMARK    6  A    between atoms: C_8  and  C_9
REMARK    7  A    between atoms: C_12  and  C_13
REMARK    8  A    between atoms: C_18  and  C_19
REMARK    9  A    between atoms: C_26  and  C_27
REMARK   10  A    between atoms: C_26  and  C_30
REMARK                            x       y       z     vdW  Elec       q    Type
REMARK                         _______ _______ _______ _____ _____    ______ ____
ROOT
ATOM      1  C   UNL     1       2.642   6.833  -6.457  0.00  0.00    -0.002 A 
ATOM      2  C   UNL     1       3.604   5.924  -6.813  0.00  0.00    -0.003 A 
ATOM      3  C   UNL     1       4.091   5.891  -8.092  0.00  0.00    -0.000 A 
ATOM      4  C   UNL     1       3.736   6.883  -8.991  0.00  0.00    -0.001 A 
ATOM      5  C   UNL     1       2.590   7.600  -8.711  0.00  0.00    -0.000 A 
ATOM      6  C   UNL     1       2.013   7.543  -7.457  0.00  0.00    -0.003 A 
ENDROOT
BRANCH   4   7
ATOM      7  C   UNL     1       4.086   6.751 -10.402  0.00  0.00    -0.006 A 
ATOM      8  C   UNL     1       3.384   5.806 -11.129  0.00  0.00    -0.015 A 
ATOM      9  C   UNL     1       3.920   5.306 -12.309  0.00  0.00    -0.007 A 
ATOM     10  C   UNL     1       5.289   5.400 -12.512  0.00  0.00    -0.001 A 
ATOM     11  C   UNL     1       5.923   6.458 -11.890  0.00  0.00    -0.000 A 
ATOM     12  C   UNL     1       5.279   7.225 -10.926  0.00  0.00    -0.001 A 
BRANCH   8  13
ATOM     13  C   UNL     1       1.963   5.607 -10.880  0.00  0.00    +0.044 A 
ATOM     14  N   UNL     1       0.959   6.134 -11.623  0.00  0.00    -0.289 NA
ATOM     15  N   UNL     1      -0.124   5.423 -11.418  0.00  0.00    -0.218 NA
ATOM     16  N   UNL     1       0.071   4.678 -10.354  0.00  0.00    -0.218 NA
ATOM     17  N   UNL     1       1.383   4.589 -10.213  0.00  0.00    -0.289 NA
ENDBRANCH   8  13
ENDBRANCH   4   7
BRANCH   1  18
ATOM     18  C   UNL     1       2.382   7.187  -5.036  0.00  0.00    +0.121 C 
BRANCH  18  20
ATOM     19  C   UNL     1       1.088   5.137  -4.889  0.00  0.00    +0.226 C 
ATOM     20  N   UNL     1       2.016   5.975  -4.301  0.00  0.00    -0.267 N 
ATOM     21  O   UNL     1       1.268   4.042  -5.447  0.00  0.00    -0.275 OA
BRANCH  20  22
ATOM     22  C   UNL     1       3.319   5.399  -3.636  0.00  0.00    +0.179 C 
BRANCH  22  23
ATOM     23  C   UNL     1       3.987   6.902  -3.512  0.00  0.00    +0.029 C 
ATOM     24  C   UNL     1       5.435   6.770  -3.858  0.00  0.00    +0.002 C 
ATOM     25  C   UNL     1       3.740   7.348  -2.103  0.00  0.00    +0.002 C 
ENDBRANCH  22  23
BRANCH  22  26
ATOM     26  C   UNL     1       2.725   5.380  -2.131  0.00  0.00    +0.382 C 
ATOM     27  O   UNL     1       1.349   5.117  -2.303  0.00  0.00    -0.244 OA
ATOM     28  O   UNL     1       3.187   4.481  -1.364  0.00  0.00    -0.244 OA
ENDBRANCH  22  26
ENDBRANCH  20  22
BRANCH  19  29
ATOM     29  C   UNL     1      -0.190   5.834  -5.248  0.00  0.00    +0.085 C 
BRANCH  29  30
ATOM     30  C   UNL     1      -0.784   5.248  -6.497  0.00  0.00    +0.010 C 
BRANCH  30  32
ATOM     31  C   UNL     1      -2.456   6.690  -5.495  0.00  0.00    +0.000 C 
ATOM     32  C   UNL     1      -2.271   5.581  -6.522  0.00  0.00    +0.001 C 
ENDBRANCH  30  32
ENDBRANCH  29  30
ENDBRANCH  19  29
ENDBRANCH  18  20
ENDBRANCH   1  18
TORSDOF 10
ENDMDL
MODEL 4
REMARK VINA RESULT:      -8.1      2.646      5.215
REMARK  Name = 
REMARK  10 active torsions:
REMARK  status: ('A' for Active; 'I' for Inactive)
REMARK    1  A    between atoms: C_2  and  C_3
REMARK    2  A    between atoms: C_3  and  C_4
REMARK    3  A    between atoms: C_4  and  C_5
REMARK    4  A    between atoms: N_7  and  C_8
REMARK    5  A    between atoms: N_7  and  C_26
REMARK    6  A    between atoms: C_8  and  C_9
REMARK    7  A    between atoms: C_12  and  C_13
REMARK    8  A    between atoms: C_18  and  C_19
REMARK    9  A    between atoms: C_26  and  C_27
REMARK   10  A    between atoms: C_26  and  C_30
REMARK                            x       y       z     vdW  Elec       q    Type
REMARK                         _______ _______ _______ _____ _____    ______ ____
ROOT
ATOM      1  C   UNL     1       2.137   6.533  -5.918  0.00  0.00    -0.002 A 
ATOM      2  C   UNL     1       2.616   5.298  -6.270  0.00  0.00    -0.003 A 
ATOM      3  C   UNL     1       2.598   4.890  -7.577  0.00  0.00    -0.000 A 
ATOM      4  C   UNL     1       2.251   5.786  -8.574  0.00  0.00    -0.001 A 
ATOM      5  C   UNL     1       1.527   6.898  -8.192  0.00  0.00    -0.000 A 
ATOM      6  C   UNL     1       1.430   7.250  -6.859  0.00  0.00    -0.003 A 
ENDROOT
BRANCH   4   7
ATOM      7  C   UNL     1       2.037   5.315  -9.939  0.00  0.00    -0.006 A 
ATOM      8  C   UNL     1       2.827   5.884 -10.922  0.00  0.00    -0.015 A 
ATOM      9  C   UNL     1       2.416   5.840 -12.248  0.00  0.00    -0.007 A 
ATOM     10  C   UNL     1       1.070   5.650 -12.522  0.00  0.00    -0.001 A 
ATOM     11  C   UNL     1       0.354   4.936 -11.581  0.00  0.00    -0.000 A 
ATOM     12  C   UNL     1       0.886   4.647 -10.330  0.00  0.00    -0.001 A 
BRANCH   8  13
ATOM     13  C   UNL     1       4.223   6.190 -10.644  0.00  0.00    +0.044 A 
ATOM     14  N   UNL     1       5.228   5.281 -10.602  0.00  0.00    -0.289 NA
ATOM     15  N   UNL     1       6.364   5.913 -10.777  0.00  0.00    -0.218 NA
ATOM     16  N   UNL     1       6.147   7.197 -10.613  0.00  0.00    -0.218 NA
ATOM     17  N   UNL     1       4.852   7.371 -10.809  0.00  0.00    -0.289 NA
ENDBRANCH   8  13
ENDBRANCH   4   7
BRANCH   1  18
ATOM     18  C   UNL     1       2.498   7.179  -4.628  0.00  0.00    +0.121 C 
BRANCH  18  20
ATOM     19  C   UNL     1       0.721   5.811  -3.695  0.00  0.00    +0.226 C 
ATOM     20  N   UNL     1       1.973   6.369  -3.526  0.00  0.00    -0.267 N 
ATOM     21  O   UNL     1       0.419   4.630  -3.934  0.00  0.00    -0.275 OA
BRANCH  20  22
ATOM     22  C   UNL     1       3.162   5.527  -2.934  0.00  0.00    +0.179 C 
BRANCH  22  23
ATOM     23  C   UNL     1       4.182   6.822  -2.994  0.00  0.00    +0.029 C 
ATOM     24  C   UNL     1       5.285   6.469  -3.939  0.00  0.00    +0.002 C 
ATOM     25  C   UNL     1       4.641   7.050  -1.586  0.00  0.00    +0.002 C 
ENDBRANCH  22  23
BRANCH  22  26
ATOM     26  C   UNL     1       2.744   5.743  -1.387  0.00  0.00    +0.382 C 
ATOM     27  O   UNL     1       1.733   6.727  -1.433  0.00  0.00    -0.244 OA
ATOM     28  O   UNL     1       2.257   4.731  -0.798  0.00  0.00    -0.244 OA
ENDBRANCH  22  26
ENDBRANCH  20  22
BRANCH  19  29
ATOM     29  C   UNL     1      -0.333   6.821  -4.037  0.00  0.00    +0.085 C 
BRANCH  29  30
ATOM     30  C   UNL     1      -1.644   6.146  -4.326  0.00  0.00    +0.010 C 
BRANCH  30  32
ATOM     31  C   UNL     1      -1.669   5.351  -6.616  0.00  0.00    +0.000 C 
ATOM     32  C   UNL     1      -2.076   6.526  -5.737  0.00  0.00    +0.001 C 
ENDBRANCH  30  32
ENDBRANCH  29  30
ENDBRANCH  19  29
ENDBRANCH  18  20
ENDBRANCH   1  18
TORSDOF 10
ENDMDL
MODEL 5
REMARK VINA RESULT:      -7.9      3.055      8.048
REMARK  Name = 
REMARK  10 active torsions:
REMARK  status: ('A' for Active; 'I' for Inactive)
REMARK    1  A    between atoms: C_2  and  C_3
REMARK    2  A    between atoms: C_3  and  C_4
REMARK    3  A    between atoms: C_4  and  C_5
REMARK    4  A    between atoms: N_7  and  C_8
REMARK    5  A    between atoms: N_7  and  C_26
REMARK    6  A    between atoms: C_8  and  C_9
REMARK    7  A    between atoms: C_12  and  C_13
REMARK    8  A    between atoms: C_18  and  C_19
REMARK    9  A    between atoms: C_26  and  C_27
REMARK   10  A    between atoms: C_26  and  C_30
REMARK                            x       y       z     vdW  Elec       q    Type
REMARK                         _______ _______ _______ _____ _____    ______ ____
ROOT
ATOM      1  C   UNL     1       2.608   6.308  -7.432  0.00  0.00    -0.002 A 
ATOM      2  C   UNL     1       2.232   5.062  -7.003  0.00  0.00    -0.003 A 
ATOM      3  C   UNL     1       2.288   4.737  -5.674  0.00  0.00    -0.000 A 
ATOM      4  C   UNL     1       2.565   5.717  -4.735  0.00  0.00    -0.001 A 
ATOM      5  C   UNL     1       3.194   6.859  -5.190  0.00  0.00    -0.000 A 
ATOM      6  C   UNL     1       3.257   7.136  -6.542  0.00  0.00    -0.003 A 
ENDROOT
BRANCH   4   7
ATOM      7  C   UNL     1       2.822   5.349  -3.346  0.00  0.00    -0.006 A 
ATOM      8  C   UNL     1       1.847   5.687  -2.425  0.00  0.00    -0.015 A 
ATOM      9  C   UNL     1       2.174   5.784  -1.078  0.00  0.00    -0.007 A 
ATOM     10  C   UNL     1       3.501   5.987  -0.728  0.00  0.00    -0.001 A 
ATOM     11  C   UNL     1       4.443   5.489  -1.607  0.00  0.00    -0.000 A 
ATOM     12  C   UNL     1       4.089   5.041  -2.874  0.00  0.00    -0.001 A 
BRANCH   8  13
ATOM     13  C   UNL     1       0.439   5.580  -2.785  0.00  0.00    +0.044 A 
ATOM     14  N   UNL     1      -0.456   4.750  -2.197  0.00  0.00    -0.289 NA
ATOM     15  N   UNL     1      -1.662   5.211  -2.430  0.00  0.00    -0.218 NA
ATOM     16  N   UNL     1      -1.580   6.103  -3.389  0.00  0.00    -0.218 NA
ATOM     17  N   UNL     1      -0.322   6.509  -3.397  0.00  0.00    -0.289 NA
ENDBRANCH   8  13
ENDBRANCH   4   7
BRANCH   1  18
ATOM     18  C   UNL     1       2.190   6.843  -8.756  0.00  0.00    +0.121 C 
BRANCH  18  20
ATOM     19  C   UNL     1       3.865   5.368  -9.715  0.00  0.00    +0.226 C 
ATOM     20  N   UNL     1       2.592   5.898  -9.800  0.00  0.00    -0.267 N 
ATOM     21  O   UNL     1       4.214   4.228  -9.365  0.00  0.00    -0.275 OA
BRANCH  20  22
ATOM     22  C   UNL     1       1.355   4.985 -10.129  0.00  0.00    +0.179 C 
BRANCH  22  23
ATOM     23  C   UNL     1       0.295   6.145  -9.630  0.00  0.00    +0.029 C 
ATOM     24  C   UNL     1      -0.704   5.476  -8.742  0.00  0.00    +0.002 C 
ATOM     25  C   UNL     1      -0.298   6.726 -10.878  0.00  0.00    +0.002 C 
ENDBRANCH  22  23
BRANCH  22  26
ATOM     26  C   UNL     1       1.283   5.387 -11.694  0.00  0.00    +0.382 C 
ATOM     27  O   UNL     1       2.633   5.539 -12.077  0.00  0.00    -0.244 OA
ATOM     28  O   UNL     1       0.769   4.520 -12.466  0.00  0.00    -0.244 OA
ENDBRANCH  22  26
ENDBRANCH  20  22
BRANCH  19  29
ATOM     29  C   UNL     1       4.935   6.415  -9.637  0.00  0.00    +0.085 C 
BRANCH  29  30
ATOM     30  C   UNL     1       6.298   5.792  -9.731  0.00  0.00    +0.010 C 
BRANCH  30  32
ATOM     31  C   UNL     1       6.309   7.764 -11.141  0.00  0.00    +0.000 C 
ATOM     32  C   UNL     1       7.226   6.773 -10.436  0.00  0.00    +0.001 C 
ENDBRANCH  30  32
ENDBRANCH  29  30
ENDBRANCH  19  29
ENDBRANCH  18  20
ENDBRANCH   1  18
TORSDOF 10
ENDMDL
MODEL 6
REMARK VINA RESULT:      -7.8      2.545      5.218
REMARK  Name = 
REMARK  10 active torsions:
REMARK  status: ('A' for Active; 'I' for Inactive)
REMARK    1  A    between atoms: C_2  and  C_3
REMARK    2  A    between atoms: C_3  and  C_4
REMARK    3  A    between atoms: C_4  and  C_5
REMARK    4  A    between atoms: N_7  and  C_8
REMARK    5  A    between atoms: N_7  and  C_26
REMARK    6  A    between atoms: C_8  and  C_9
REMARK    7  A    between atoms: C_12  and  C_13
REMARK    8  A    between atoms: C_18  and  C_19
REMARK    9  A    between atoms: C_26  and  C_27
REMARK   10  A    between atoms: C_26  and  C_30
REMARK                            x       y       z     vdW  Elec       q    Type
REMARK                         _______ _______ _______ _____ _____    ______ ____
ROOT
ATOM      1  C   UNL     1       1.607   4.499  -6.260  0.00  0.00    -0.002 A 
ATOM      2  C   UNL     1       2.394   3.735  -7.081  0.00  0.00    -0.003 A 
ATOM      3  C   UNL     1       2.374   3.923  -8.437  0.00  0.00    -0.000 A 
ATOM      4  C   UNL     1       1.683   4.997  -8.974  0.00  0.00    -0.001 A 
ATOM      5  C   UNL     1       0.703   5.567  -8.187  0.00  0.00    -0.000 A 
ATOM      6  C   UNL     1       0.633   5.285  -6.836  0.00  0.00    -0.003 A 
ENDROOT
BRANCH   4   7
ATOM      7  C   UNL     1       1.490   5.094 -10.418  0.00  0.00    -0.006 A 
ATOM      8  C   UNL     1       2.358   5.923 -11.105  0.00  0.00    -0.015 A 
ATOM      9  C   UNL     1       1.998   6.416 -12.353  0.00  0.00    -0.007 A 
ATOM     10  C   UNL     1       0.654   6.456 -12.691  0.00  0.00    -0.001 A 
ATOM     11  C   UNL     1      -0.150   5.503 -12.096  0.00  0.00    -0.000 A 
ATOM     12  C   UNL     1       0.309   4.721 -11.043  0.00  0.00    -0.001 A 
BRANCH   8  13
ATOM     13  C   UNL     1       3.762   5.984 -10.720  0.00  0.00    +0.044 A 
ATOM     14  N   UNL     1       4.728   5.142 -11.159  0.00  0.00    -0.289 NA
ATOM     15  N   UNL     1       5.891   5.726 -10.992  0.00  0.00    -0.218 NA
ATOM     16  N   UNL     1       5.723   6.751 -10.188  0.00  0.00    -0.218 NA
ATOM     17  N   UNL     1       4.438   7.055 -10.258  0.00  0.00    -0.289 NA
ENDBRANCH   8  13
ENDBRANCH   4   7
BRANCH   1  18
ATOM     18  C   UNL     1       1.881   4.628  -4.803  0.00  0.00    +0.121 C 
BRANCH  18  20
ATOM     19  C   UNL     1       0.448   6.235  -3.680  0.00  0.00    +0.226 C 
ATOM     20  N   UNL     1       1.612   6.006  -4.387  0.00  0.00    -0.267 N 
ATOM     21  O   UNL     1       0.303   6.458  -2.467  0.00  0.00    -0.275 OA
BRANCH  20  22
ATOM     22  C   UNL     1       2.973   6.651  -3.937  0.00  0.00    +0.179 C 
BRANCH  22  23
ATOM     23  C   UNL     1       3.575   5.189  -3.467  0.00  0.00    +0.029 C 
ATOM     24  C   UNL     1       3.567   5.169  -1.973  0.00  0.00    +0.002 C 
ATOM     25  C   UNL     1       4.946   5.096  -4.067  0.00  0.00    +0.002 C 
ENDBRANCH  22  23
BRANCH  22  26
ATOM     26  C   UNL     1       3.648   6.620  -5.407  0.00  0.00    +0.382 C 
ATOM     27  O   UNL     1       2.856   7.502  -6.172  0.00  0.00    -0.244 OA
ATOM     28  O   UNL     1       4.845   7.035  -5.475  0.00  0.00    -0.244 OA
ENDBRANCH  22  26
ENDBRANCH  20  22
BRANCH  19  29
ATOM     29  C   UNL     1      -0.779   5.744  -4.389  0.00  0.00    +0.085 C 
BRANCH  29  30
ATOM     30  C   UNL     1      -1.978   6.564  -4.009  0.00  0.00    +0.010 C 
BRANCH  30  32
ATOM     31  C   UNL     1      -2.716   6.081  -6.268  0.00  0.00    +0.000 C 
ATOM     32  C   UNL     1      -2.531   7.217  -5.270  0.00  0.00    +0.001 C 
ENDBRANCH  30  32
ENDBRANCH  29  30
ENDBRANCH  19  29
ENDBRANCH  18  20
ENDBRANCH   1  18
TORSDOF 10
ENDMDL
MODEL 7
REMARK VINA RESULT:      -7.6      3.116      7.794
REMARK  Name = 
REMARK  10 active torsions:
REMARK  status: ('A' for Active; 'I' for Inactive)
REMARK    1  A    between atoms: C_2  and  C_3
REMARK    2  A    between atoms: C_3  and  C_4
REMARK    3  A    between atoms: C_4  and  C_5
REMARK    4  A    between atoms: N_7  and  C_8
REMARK    5  A    between atoms: N_7  and  C_26
REMARK    6  A    between atoms: C_8  and  C_9
REMARK    7  A    between atoms: C_12  and  C_13
REMARK    8  A    between atoms: C_18  and  C_19
REMARK    9  A    between atoms: C_26  and  C_27
REMARK   10  A    between atoms: C_26  and  C_30
REMARK                            x       y       z     vdW  Elec       q    Type
REMARK                         _______ _______ _______ _____ _____    ______ ____
ROOT
ATOM      1  C   UNL     1       3.706   6.800  -9.301  0.00  0.00    -0.002 A 
ATOM      2  C   UNL     1       2.890   7.421  -8.392  0.00  0.00    -0.003 A 
ATOM      3  C   UNL     1       2.831   6.983  -7.096  0.00  0.00    -0.000 A 
ATOM      4  C   UNL     1       3.720   6.017  -6.654  0.00  0.00    -0.001 A 
ATOM      5  C   UNL     1       4.321   5.232  -7.617  0.00  0.00    -0.000 A 
ATOM      6  C   UNL     1       4.278   5.596  -8.949  0.00  0.00    -0.003 A 
ENDROOT
BRANCH   4   7
ATOM      7  C   UNL     1       3.540   5.403  -5.341  0.00  0.00    -0.006 A 
ATOM      8  C   UNL     1       2.327   5.626  -4.714  0.00  0.00    -0.015 A 
ATOM      9  C   UNL     1       2.224   5.473  -3.337  0.00  0.00    -0.007 A 
ATOM     10  C   UNL     1       3.378   5.548  -2.571  0.00  0.00    -0.001 A 
ATOM     11  C   UNL     1       4.548   5.163  -3.197  0.00  0.00    -0.000 A 
ATOM     12  C   UNL     1       4.603   4.957  -4.570  0.00  0.00    -0.001 A 
BRANCH   8  13
ATOM     13  C   UNL     1       1.099   5.652  -5.497  0.00  0.00    +0.044 A 
ATOM     14  N   UNL     1       0.553   4.584  -6.128  0.00  0.00    -0.289 NA
ATOM     15  N   UNL     1      -0.718   4.834  -6.339  0.00  0.00    -0.218 NA
ATOM     16  N   UNL     1      -0.917   6.119  -6.156  0.00  0.00    -0.218 NA
ATOM     17  N   UNL     1       0.084   6.534  -5.400  0.00  0.00    -0.289 NA
ENDBRANCH   8  13
ENDBRANCH   4   7
BRANCH   1  18
ATOM     18  C   UNL     1       4.118   7.461 -10.569  0.00  0.00    +0.121 C 
BRANCH  18  20
ATOM     19  C   UNL     1       3.141   6.092 -12.321  0.00  0.00    +0.226 C 
ATOM     20  N   UNL     1       4.272   6.442 -11.609  0.00  0.00    -0.267 N 
ATOM     21  O   UNL     1       2.825   6.395 -13.484  0.00  0.00    -0.275 OA
BRANCH  20  22
ATOM     22  C   UNL     1       5.641   6.696 -12.339  0.00  0.00    +0.179 C 
BRANCH  22  23
ATOM     23  C   UNL     1       6.305   7.358 -10.982  0.00  0.00    +0.029 C 
ATOM     24  C   UNL     1       6.714   8.753 -11.326  0.00  0.00    +0.002 C 
ATOM     25  C   UNL     1       7.450   6.466 -10.607  0.00  0.00    +0.002 C 
ENDBRANCH  22  23
BRANCH  22  26
ATOM     26  C   UNL     1       6.229   5.212 -12.079  0.00  0.00    +0.382 C 
ATOM     27  O   UNL     1       5.110   4.364 -12.223  0.00  0.00    -0.244 OA
ATOM     28  O   UNL     1       7.110   4.814 -12.900  0.00  0.00    -0.244 OA
ENDBRANCH  22  26
ENDBRANCH  20  22
BRANCH  19  29
ATOM     29  C   UNL     1       2.005   5.655 -11.445  0.00  0.00    +0.085 C 
BRANCH  29  30
ATOM     30  C   UNL     1       0.788   6.500 -11.690  0.00  0.00    +0.010 C 
BRANCH  30  32
ATOM     31  C   UNL     1       0.345   5.106  -9.757  0.00  0.00    +0.000 C 
ATOM     32  C   UNL     1      -0.158   6.332 -10.507  0.00  0.00    +0.001 C 
ENDBRANCH  30  32
ENDBRANCH  29  30
ENDBRANCH  19  29
ENDBRANCH  18  20
ENDBRANCH   1  18
TORSDOF 10
ENDMDL
MODEL 8
REMARK VINA RESULT:      -7.6      2.915      8.306
REMARK  Name = 
REMARK  10 active torsions:
REMARK  status: ('A' for Active; 'I' for Inactive)
REMARK    1  A    between atoms: C_2  and  C_3
REMARK    2  A    between atoms: C_3  and  C_4
REMARK    3  A    between atoms: C_4  and  C_5
REMARK    4  A    between atoms: N_7  and  C_8
REMARK    5  A    between atoms: N_7  and  C_26
REMARK    6  A    between atoms: C_8  and  C_9
REMARK    7  A    between atoms: C_12  and  C_13
REMARK    8  A    between atoms: C_18  and  C_19
REMARK    9  A    between atoms: C_26  and  C_27
REMARK   10  A    between atoms: C_26  and  C_30
REMARK                            x       y       z     vdW  Elec       q    Type
REMARK                         _______ _______ _______ _____ _____    ______ ____
ROOT
ATOM      1  C   UNL     1       3.334   6.842  -8.855  0.00  0.00    -0.002 A 
ATOM      2  C   UNL     1       2.482   7.857  -8.505  0.00  0.00    -0.003 A 
ATOM      3  C   UNL     1       1.813   7.823  -7.311  0.00  0.00    -0.000 A 
ATOM      4  C   UNL     1       2.120   6.849  -6.376  0.00  0.00    -0.001 A 
ATOM      5  C   UNL     1       2.752   5.713  -6.841  0.00  0.00    -0.000 A 
ATOM      6  C   UNL     1       3.322   5.690  -8.099  0.00  0.00    -0.003 A 
ENDROOT
BRANCH   4   7
ATOM      7  C   UNL     1       1.284   6.682  -5.191  0.00  0.00    -0.006 A 
ATOM      8  C   UNL     1       1.933   6.344  -4.017  0.00  0.00    -0.015 A 
ATOM      9  C   UNL     1       1.222   5.748  -2.983  0.00  0.00    -0.007 A 
ATOM     10  C   UNL     1       0.031   5.102  -3.279  0.00  0.00    -0.001 A 
ATOM     11  C   UNL     1      -0.663   5.581  -4.373  0.00  0.00    -0.000 A 
ATOM     12  C   UNL     1      -0.087   6.480  -5.262  0.00  0.00    -0.001 A 
BRANCH   8  13
ATOM     13  C   UNL     1       3.233   6.927  -3.712  0.00  0.00    +0.044 A 
ATOM     14  N   UNL     1       3.441   7.980  -2.885  0.00  0.00    -0.289 NA
ATOM     15  N   UNL     1       4.692   7.955  -2.492  0.00  0.00    -0.218 NA
ATOM     16  N   UNL     1       5.350   7.130  -3.272  0.00  0.00    -0.218 NA
ATOM     17  N   UNL     1       4.439   6.330  -3.800  0.00  0.00    -0.289 NA
ENDBRANCH   8  13
ENDBRANCH   4   7
BRANCH   1  18
ATOM     18  C   UNL     1       4.371   7.014  -9.908  0.00  0.00    +0.121 C 
BRANCH  18  20
ATOM     19  C   UNL     1       3.493   5.513 -11.604  0.00  0.00    +0.226 C 
ATOM     20  N   UNL     1       4.481   5.771 -10.675  0.00  0.00    -0.267 N 
ATOM     21  O   UNL     1       3.544   5.597 -12.843  0.00  0.00    -0.275 OA
BRANCH  20  22
ATOM     22  C   UNL     1       5.998   5.551 -11.025  0.00  0.00    +0.179 C 
BRANCH  22  23
ATOM     23  C   UNL     1       6.225   7.160 -11.306  0.00  0.00    +0.029 C 
ATOM     24  C   UNL     1       6.413   7.328 -12.779  0.00  0.00    +0.002 C 
ATOM     25  C   UNL     1       7.421   7.556 -10.494  0.00  0.00    +0.002 C 
ENDBRANCH  22  23
BRANCH  22  26
ATOM     26  C   UNL     1       6.515   5.597  -9.493  0.00  0.00    +0.382 C 
ATOM     27  O   UNL     1       5.806   4.558  -8.855  0.00  0.00    -0.244 OA
ATOM     28  O   UNL     1       7.751   5.372  -9.318  0.00  0.00    -0.244 OA
ENDBRANCH  22  26
ENDBRANCH  20  22
BRANCH  19  29
ATOM     29  C   UNL     1       2.112   5.545 -11.020  0.00  0.00    +0.085 C 
BRANCH  29  30
ATOM     30  C   UNL     1       1.208   6.425 -11.835  0.00  0.00    +0.010 C 
BRANCH  30  32
ATOM     31  C   UNL     1      -0.057   5.687  -9.904  0.00  0.00    +0.000 C 
ATOM     32  C   UNL     1      -0.032   6.736 -11.007  0.00  0.00    +0.001 C 
ENDBRANCH  30  32
ENDBRANCH  29  30
ENDBRANCH  19  29
ENDBRANCH  18  20
ENDBRANCH   1  18
TORSDOF 10
ENDMDL
MODEL 9
REMARK VINA RESULT:      -7.6      3.523      8.312
REMARK  Name = 
REMARK  10 active torsions:
REMARK  status: ('A' for Active; 'I' for Inactive)
REMARK    1  A    between atoms: C_2  and  C_3
REMARK    2  A    between atoms: C_3  and  C_4
REMARK    3  A    between atoms: C_4  and  C_5
REMARK    4  A    between atoms: N_7  and  C_8
REMARK    5  A    between atoms: N_7  and  C_26
REMARK    6  A    between atoms: C_8  and  C_9
REMARK    7  A    between atoms: C_12  and  C_13
REMARK    8  A    between atoms: C_18  and  C_19
REMARK    9  A    between atoms: C_26  and  C_27
REMARK   10  A    between atoms: C_26  and  C_30
REMARK                            x       y       z     vdW  Elec       q    Type
REMARK                         _______ _______ _______ _____ _____    ______ ____
ROOT
ATOM      1  C   UNL     1       1.286   5.602  -9.341  0.00  0.00    -0.002 A 
ATOM      2  C   UNL     1       1.896   6.520  -8.528  0.00  0.00    -0.003 A 
ATOM      3  C   UNL     1       1.380   6.809  -7.293  0.00  0.00    -0.000 A 
ATOM      4  C   UNL     1       0.333   6.055  -6.790  0.00  0.00    -0.001 A 
ATOM      5  C   UNL     1      -0.424   5.348  -7.703  0.00  0.00    -0.000 A 
ATOM      6  C   UNL     1       0.028   5.157  -8.995  0.00  0.00    -0.003 A 
ENDROOT
BRANCH   4   7
ATOM      7  C   UNL     1      -0.352   6.475  -5.571  0.00  0.00    -0.006 A 
ATOM      8  C   UNL     1       0.224   6.092  -4.373  0.00  0.00    -0.015 A 
ATOM      9  C   UNL     1      -0.547   6.053  -3.218  0.00  0.00    -0.007 A 
ATOM     10  C   UNL     1      -1.925   5.952  -3.341  0.00  0.00    -0.001 A 
ATOM     11  C   UNL     1      -2.474   6.492  -4.488  0.00  0.00    -0.000 A 
ATOM     12  C   UNL     1      -1.678   6.882  -5.559  0.00  0.00    -0.001 A 
BRANCH   8  13
ATOM     13  C   UNL     1       1.674   6.091  -4.233  0.00  0.00    +0.044 A 
ATOM     14  N   UNL     1       2.396   7.042  -3.593  0.00  0.00    -0.289 NA
ATOM     15  N   UNL     1       3.559   6.529  -3.268  0.00  0.00    -0.218 NA
ATOM     16  N   UNL     1       3.717   5.415  -3.944  0.00  0.00    -0.218 NA
ATOM     17  N   UNL     1       2.502   5.028  -4.290  0.00  0.00    -0.289 NA
ENDBRANCH   8  13
ENDBRANCH   4   7
BRANCH   1  18
ATOM     18  C   UNL     1       2.000   4.958 -10.477  0.00  0.00    +0.121 C 
BRANCH  18  20
ATOM     19  C   UNL     1       3.503   6.337 -11.795  0.00  0.00    +0.226 C 
ATOM     20  N   UNL     1       2.203   5.949 -11.535  0.00  0.00    -0.267 N 
ATOM     21  O   UNL     1       4.235   6.027 -12.750  0.00  0.00    -0.275 OA
BRANCH  20  22
ATOM     22  C   UNL     1       1.208   5.617 -12.707  0.00  0.00    +0.179 C 
BRANCH  22  23
ATOM     23  C   UNL     1       0.833   7.210 -12.914  0.00  0.00    +0.029 C 
ATOM     24  C   UNL     1      -0.078   7.597 -11.794  0.00  0.00    +0.002 C 
ATOM     25  C   UNL     1       0.202   7.312 -14.269  0.00  0.00    +0.002 C 
ENDBRANCH  22  23
BRANCH  22  26
ATOM     26  C   UNL     1       2.340   5.584 -13.862  0.00  0.00    +0.382 C 
ATOM     27  O   UNL     1       2.339   4.246 -14.312  0.00  0.00    -0.244 OA
ATOM     28  O   UNL     1       2.123   6.321 -14.872  0.00  0.00    -0.244 OA
ENDBRANCH  22  26
ENDBRANCH  20  22
BRANCH  19  29
ATOM     29  C   UNL     1       4.220   6.843 -10.579  0.00  0.00    +0.085 C 
BRANCH  29  30
ATOM     30  C   UNL     1       5.692   6.980 -10.847  0.00  0.00    +0.010 C 
BRANCH  30  32
ATOM     31  C   UNL     1       5.479   5.550  -8.901  0.00  0.00    +0.000 C 
ATOM     32  C   UNL     1       6.427   5.923 -10.032  0.00  0.00    +0.001 C 
ENDBRANCH  30  32
ENDBRANCH  29  30
ENDBRANCH  19  29
ENDBRANCH  18  20
ENDBRANCH   1  18
TORSDOF 10
ENDMDL
