MODEL 1
REMARK VINA RESULT:      -8.1      0.000      0.000
REMARK  Name = 
REMARK  5 active torsions:
REMARK  status: ('A' for Active; 'I' for Inactive)
REMARK    1  A    between atoms: C_2  and  C_3
REMARK    2  A    between atoms: C_4  and  C_5
REMARK    3  A    between atoms: C_14  and  C_15
REMARK    4  A    between atoms: C_16  and  C_17
REMARK    5  A    between atoms: C_19  and  C_20
REMARK                            x       y       z     vdW  Elec       q    Type
REMARK                         _______ _______ _______ _____ _____    ______ ____
ROOT
ATOM      1  C   UNL     1       0.707   6.453 -11.407  0.00  0.00    +0.031 C 
ATOM      2  C   UNL     1       1.932   6.135 -10.608  0.00  0.00    -0.022 C 
ATOM      3  C   UNL     1       1.829   6.332  -9.293  0.00  0.00    -0.004 C 
ENDROOT
BRANCH   3   4
ATOM      4  C   UNL     1       0.562   5.916  -8.684  0.00  0.00    -0.001 C 
ATOM      5  C   UNL     1       0.200   6.267  -7.463  0.00  0.00    -0.004 C 
BRANCH   5   6
ATOM      6  C   UNL     1      -0.440   5.371  -6.522  0.00  0.00    -0.015 C 
ATOM      7  C   UNL     1       0.286   4.934  -5.500  0.00  0.00    +0.082 C 
ATOM      8  C   UNL     1      -1.923   5.205  -6.431  0.00  0.00    +0.031 C 
BRANCH   7   9
ATOM      9  C   UNL     1       1.703   4.616  -5.703  0.00  0.00    +0.388 C 
ATOM     10  O   UNL     1       2.064   3.474  -6.425  0.00  0.00    -0.241 OA
ATOM     11  O   UNL     1       2.494   4.936  -4.766  0.00  0.00    -0.241 OA
ENDBRANCH   7   9
ENDBRANCH   5   6
ENDBRANCH   3   4
BRANCH   2  12
ATOM     12  C   UNL     1       3.226   6.398 -11.249  0.00  0.00    -0.005 C 
ATOM     13  C   UNL     1       4.262   5.602 -11.100  0.00  0.00    -0.005 C 
BRANCH  13  14
ATOM     14  C   UNL     1       5.622   6.094 -11.346  0.00  0.00    -0.031 C 
ATOM     15  C   UNL     1       6.223   5.944 -12.709  0.00  0.00    +0.018 C 
ATOM     16  C   UNL     1       5.302   5.126 -13.598  0.00  0.00    +0.004 C 
ATOM     17  C   UNL     1       6.579   7.270 -13.322  0.00  0.00    +0.004 C 
ATOM     18  C   UNL     1       7.485   5.126 -12.520  0.00  0.00    +0.004 C 
ATOM     19  C   UNL     1       8.470   5.783 -11.596  0.00  0.00    +0.005 C 
ATOM     20  C   UNL     1       7.809   6.745 -10.624  0.00  0.00    +0.022 C 
ATOM     21  C   UNL     1       6.443   6.228 -10.304  0.00  0.00    -0.048 C 
ATOM     22  C   UNL     1       6.191   5.537  -9.001  0.00  0.00    +0.026 C 
ENDBRANCH  13  14
ENDBRANCH   2  12
TORSDOF 5
ENDMDL
MODEL 2
REMARK VINA RESULT:      -8.0      1.693      3.096
REMARK  Name = 
REMARK  5 active torsions:
REMARK  status: ('A' for Active; 'I' for Inactive)
REMARK    1  A    between atoms: C_2  and  C_3
REMARK    2  A    between atoms: C_4  and  C_5
REMARK    3  A    between atoms: C_14  and  C_15
REMARK    4  A    between atoms: C_16  and  C_17
REMARK    5  A    between atoms: C_19  and  C_20
REMARK                            x       y       z     vdW  Elec       q    Type
REMARK                         _______ _______ _______ _____ _____    ______ ____
ROOT
ATOM      1  C   UNL     1       4.523   5.601  -6.350  0.00  0.00    +0.031 C 
ATOM      2  C   UNL     1       3.869   5.639  -7.695  0.00  0.00    -0.022 C 
ATOM      3  C   UNL     1       2.604   5.214  -7.732  0.00  0.00    -0.004 C 
ENDROOT
BRANCH   3   4
ATOM      4  C   UNL     1       1.757   5.639  -6.615  0.00  0.00    -0.001 C 
ATOM      5  C   UNL     1       0.830   4.864  -6.080  0.00  0.00    -0.004 C 
BRANCH   5   6
ATOM      6  C   UNL     1      -0.481   5.334  -5.680  0.00  0.00    -0.015 C 
ATOM      7  C   UNL     1      -0.578   5.974  -4.522  0.00  0.00    +0.082 C 
ATOM      8  C   UNL     1      -1.629   5.459  -6.631  0.00  0.00    +0.031 C 
BRANCH   7   9
ATOM      9  C   UNL     1       0.231   5.532  -3.382  0.00  0.00    +0.388 C 
ATOM     10  O   UNL     1      -0.366   4.817  -2.340  0.00  0.00    -0.241 OA
ATOM     11  O   UNL     1       1.187   6.292  -3.038  0.00  0.00    -0.241 OA
ENDBRANCH   7   9
ENDBRANCH   5   6
ENDBRANCH   3   4
BRANCH   2  12
ATOM     12  C   UNL     1       4.726   5.368  -8.856  0.00  0.00    -0.005 C 
ATOM     13  C   UNL     1       4.956   6.266  -9.787  0.00  0.00    -0.005 C 
BRANCH  13  14
ATOM     14  C   UNL     1       5.409   5.857 -11.122  0.00  0.00    -0.031 C 
ATOM     15  C   UNL     1       6.765   6.276 -11.599  0.00  0.00    +0.018 C 
ATOM     16  C   UNL     1       7.398   7.230 -10.600  0.00  0.00    +0.004 C 
ATOM     17  C   UNL     1       7.649   5.097 -11.902  0.00  0.00    +0.004 C 
ATOM     18  C   UNL     1       6.534   7.068 -12.870  0.00  0.00    +0.004 C 
ATOM     19  C   UNL     1       5.841   6.266 -13.936  0.00  0.00    +0.005 C 
ATOM     20  C   UNL     1       5.018   5.124 -13.366  0.00  0.00    +0.022 C 
ATOM     21  C   UNL     1       4.488   5.543 -12.032  0.00  0.00    -0.048 C 
ATOM     22  C   UNL     1       3.060   5.968 -11.896  0.00  0.00    +0.026 C 
ENDBRANCH  13  14
ENDBRANCH   2  12
TORSDOF 5
ENDMDL
MODEL 3
REMARK VINA RESULT:      -7.8      1.878      2.318
REMARK  Name = 
REMARK  5 active torsions:
REMARK  status: ('A' for Active; 'I' for Inactive)
REMARK    1  A    between atoms: C_2  and  C_3
REMARK    2  A    between atoms: C_4  and  C_5
REMARK    3  A    between atoms: C_14  and  C_15
REMARK    4  A    between atoms: C_16  and  C_17
REMARK    5  A    between atoms: C_19  and  C_20
REMARK                            x       y       z     vdW  Elec       q    Type
REMARK                         _______ _______ _______ _____ _____    ______ ____
ROOT
ATOM      1  C   UNL     1       1.015   6.527  -9.996  0.00  0.00    +0.031 C 
ATOM      2  C   UNL     1       2.397   6.306  -9.467  0.00  0.00    -0.022 C 
ATOM      3  C   UNL     1       2.563   6.553  -8.166  0.00  0.00    -0.004 C 
ENDROOT
BRANCH   3   4
ATOM      4  C   UNL     1       1.480   6.099  -7.289  0.00  0.00    -0.001 C 
ATOM      5  C   UNL     1       0.869   6.894  -6.429  0.00  0.00    -0.004 C 
BRANCH   5   6
ATOM      6  C   UNL     1       0.501   6.497  -5.085  0.00  0.00    -0.015 C 
ATOM      7  C   UNL     1      -0.661   5.876  -4.924  0.00  0.00    +0.082 C 
ATOM      8  C   UNL     1       1.482   6.420  -3.959  0.00  0.00    +0.031 C 
BRANCH   7   9
ATOM      9  C   UNL     1      -1.818   6.289  -5.724  0.00  0.00    +0.388 C 
ATOM     10  O   UNL     1      -2.656   7.308  -5.260  0.00  0.00    -0.241 OA
ATOM     11  O   UNL     1      -2.391   5.382  -6.399  0.00  0.00    -0.241 OA
ENDBRANCH   7   9
ENDBRANCH   5   6
ENDBRANCH   3   4
BRANCH   2  12
ATOM     12  C   UNL     1       3.510   6.606 -10.376  0.00  0.00    -0.005 C 
ATOM     13  C   UNL     1       4.424   5.716 -10.691  0.00  0.00    -0.005 C 
BRANCH  13  14
ATOM     14  C   UNL     1       5.733   6.139 -11.202  0.00  0.00    -0.031 C 
ATOM     15  C   UNL     1       6.048   5.960 -12.655  0.00  0.00    +0.018 C 
ATOM     16  C   UNL     1       4.933   5.190 -13.340  0.00  0.00    +0.004 C 
ATOM     17  C   UNL     1       6.342   7.268 -13.338  0.00  0.00    +0.004 C 
ATOM     18  C   UNL     1       7.281   5.080 -12.708  0.00  0.00    +0.004 C 
ATOM     19  C   UNL     1       8.459   5.687 -11.999  0.00  0.00    +0.005 C 
ATOM     20  C   UNL     1       8.048   6.680 -10.927  0.00  0.00    +0.022 C 
ATOM     21  C   UNL     1       6.746   6.232 -10.342  0.00  0.00    -0.048 C 
ATOM     22  C   UNL     1       6.720   5.554  -9.008  0.00  0.00    +0.026 C 
ENDBRANCH  13  14
ENDBRANCH   2  12
TORSDOF 5
ENDMDL
MODEL 4
REMARK VINA RESULT:      -7.6      3.203      8.845
REMARK  Name = 
REMARK  5 active torsions:
REMARK  status: ('A' for Active; 'I' for Inactive)
REMARK    1  A    between atoms: C_2  and  C_3
REMARK    2  A    between atoms: C_4  and  C_5
REMARK    3  A    between atoms: C_14  and  C_15
REMARK    4  A    between atoms: C_16  and  C_17
REMARK    5  A    between atoms: C_19  and  C_20
REMARK                            x       y       z     vdW  Elec       q    Type
REMARK                         _______ _______ _______ _____ _____    ______ ____
ROOT
ATOM      1  C   UNL     1       2.337   7.205  -7.072  0.00  0.00    +0.031 C 
ATOM      2  C   UNL     1       1.417   6.064  -7.374  0.00  0.00    -0.022 C 
ATOM      3  C   UNL     1       1.104   5.901  -8.661  0.00  0.00    -0.004 C 
ENDROOT
BRANCH   3   4
ATOM      4  C   UNL     1       2.205   6.082  -9.612  0.00  0.00    -0.001 C 
ATOM      5  C   UNL     1       3.081   5.133  -9.888  0.00  0.00    -0.004 C 
BRANCH   5   6
ATOM      6  C   UNL     1       4.502   5.368 -10.047  0.00  0.00    -0.015 C 
ATOM      7  C   UNL     1       4.919   5.843 -11.214  0.00  0.00    +0.082 C 
ATOM      8  C   UNL     1       5.450   5.453  -8.894  0.00  0.00    +0.031 C 
BRANCH   7   9
ATOM      9  C   UNL     1       4.285   5.378 -12.452  0.00  0.00    +0.388 C 
ATOM     10  O   UNL     1       5.005   4.580 -13.345  0.00  0.00    -0.241 OA
ATOM     11  O   UNL     1       3.442   6.161 -12.985  0.00  0.00    -0.241 OA
ENDBRANCH   7   9
ENDBRANCH   5   6
ENDBRANCH   3   4
BRANCH   2  12
ATOM     12  C   UNL     1       0.394   5.755  -6.368  0.00  0.00    -0.005 C 
ATOM     13  C   UNL     1      -0.011   6.636  -5.480  0.00  0.00    -0.005 C 
BRANCH  13  14
ATOM     14  C   UNL     1      -0.660   6.199  -4.238  0.00  0.00    -0.031 C 
ATOM     15  C   UNL     1      -2.087   6.574  -3.983  0.00  0.00    +0.018 C 
ATOM     16  C   UNL     1      -2.579   7.522  -5.063  0.00  0.00    +0.004 C 
ATOM     17  C   UNL     1      -2.973   5.369  -3.834  0.00  0.00    +0.004 C 
ATOM     18  C   UNL     1      -2.086   7.358  -2.685  0.00  0.00    +0.004 C 
ATOM     19  C   UNL     1      -1.550   6.564  -1.528  0.00  0.00    +0.005 C 
ATOM     20  C   UNL     1      -0.613   5.451  -1.966  0.00  0.00    +0.022 C 
ATOM     21  C   UNL     1       0.112   5.901  -3.194  0.00  0.00    -0.048 C 
ATOM     22  C   UNL     1       1.531   6.367  -3.096  0.00  0.00    +0.026 C 
ENDBRANCH  13  14
ENDBRANCH   2  12
TORSDOF 5
ENDMDL
MODEL 5
REMARK VINA RESULT:      -7.5      3.058      8.953
REMARK  Name = 
REMARK  5 active torsions:
REMARK  status: ('A' for Active; 'I' for Inactive)
REMARK    1  A    between atoms: C_2  and  C_3
REMARK    2  A    between atoms: C_4  and  C_5
REMARK    3  A    between atoms: C_14  and  C_15
REMARK    4  A    between atoms: C_16  and  C_17
REMARK    5  A    between atoms: C_19  and  C_20
REMARK                            x       y       z     vdW  Elec       q    Type
REMARK                         _______ _______ _______ _____ _____    ______ ____
ROOT
ATOM      1  C   UNL     1       2.204   3.905  -6.778  0.00  0.00    +0.031 C 
ATOM      2  C   UNL     1       1.453   5.181  -6.558  0.00  0.00    -0.022 C 
ATOM      3  C   UNL     1       2.187   6.295  -6.599  0.00  0.00    -0.004 C 
ENDROOT
BRANCH   3   4
ATOM      4  C   UNL     1       3.209   6.347  -7.648  0.00  0.00    -0.001 C 
ATOM      5  C   UNL     1       2.984   6.853  -8.847  0.00  0.00    -0.004 C 
BRANCH   5   6
ATOM      6  C   UNL     1       3.471   6.261 -10.077  0.00  0.00    -0.015 C 
ATOM      7  C   UNL     1       2.658   6.266 -11.126  0.00  0.00    +0.082 C 
ATOM      8  C   UNL     1       4.918   5.983 -10.332  0.00  0.00    +0.031 C 
BRANCH   7   9
ATOM      9  C   UNL     1       1.222   6.047 -10.927  0.00  0.00    +0.388 C 
ATOM     10  O   UNL     1       0.693   4.758 -11.037  0.00  0.00    -0.241 OA
ATOM     11  O   UNL     1       0.450   6.981 -11.301  0.00  0.00    -0.241 OA
ENDBRANCH   7   9
ENDBRANCH   5   6
ENDBRANCH   3   4
BRANCH   2  12
ATOM     12  C   UNL     1       0.322   5.130  -5.625  0.00  0.00    -0.005 C 
ATOM     13  C   UNL     1      -0.048   6.168  -4.907  0.00  0.00    -0.005 C 
BRANCH  13  14
ATOM     14  C   UNL     1      -0.844   5.986  -3.687  0.00  0.00    -0.031 C 
ATOM     15  C   UNL     1      -2.244   6.512  -3.638  0.00  0.00    +0.018 C 
ATOM     16  C   UNL     1      -2.545   7.315  -4.892  0.00  0.00    +0.004 C 
ATOM     17  C   UNL     1      -3.253   5.422  -3.403  0.00  0.00    +0.004 C 
ATOM     18  C   UNL     1      -2.282   7.487  -2.478  0.00  0.00    +0.004 C 
ATOM     19  C   UNL     1      -1.930   6.843  -1.167  0.00  0.00    +0.005 C 
ATOM     20  C   UNL     1      -1.071   5.603  -1.336  0.00  0.00    +0.022 C 
ATOM     21  C   UNL     1      -0.199   5.793  -2.537  0.00  0.00    -0.048 C 
ATOM     22  C   UNL     1       1.243   6.151  -2.365  0.00  0.00    +0.026 C 
ENDBRANCH  13  14
ENDBRANCH   2  12
TORSDOF 5
ENDMDL
MODEL 6
REMARK VINA RESULT:      -7.3      2.824      8.772
REMARK  Name = 
REMARK  5 active torsions:
REMARK  status: ('A' for Active; 'I' for Inactive)
REMARK    1  A    between atoms: C_2  and  C_3
REMARK    2  A    between atoms: C_4  and  C_5
REMARK    3  A    between atoms: C_14  and  C_15
REMARK    4  A    between atoms: C_16  and  C_17
REMARK    5  A    between atoms: C_19  and  C_20
REMARK                            x       y       z     vdW  Elec       q    Type
REMARK                         _______ _______ _______ _____ _____    ______ ____
ROOT
ATOM      1  C   UNL     1       3.098   7.094  -5.793  0.00  0.00    +0.031 C 
ATOM      2  C   UNL     1       1.888   6.604  -6.522  0.00  0.00    -0.022 C 
ATOM      3  C   UNL     1       1.616   7.226  -7.671  0.00  0.00    -0.004 C 
ENDROOT
BRANCH   3   4
ATOM      4  C   UNL     1       2.772   7.532  -8.518  0.00  0.00    -0.001 C 
ATOM      5  C   UNL     1       3.023   6.899  -9.650  0.00  0.00    -0.004 C 
BRANCH   5   6
ATOM      6  C   UNL     1       4.348   6.485 -10.066  0.00  0.00    -0.015 C 
ATOM      7  C   UNL     1       4.630   5.189 -10.016  0.00  0.00    +0.082 C 
ATOM      8  C   UNL     1       5.262   7.356 -10.867  0.00  0.00    +0.031 C 
BRANCH   7   9
ATOM      9  C   UNL     1       4.110   4.378  -8.912  0.00  0.00    +0.388 C 
ATOM     10  O   UNL     1       2.795   3.904  -8.955  0.00  0.00    -0.241 OA
ATOM     11  O   UNL     1       4.548   4.652  -7.754  0.00  0.00    -0.241 OA
ENDBRANCH   7   9
ENDBRANCH   5   6
ENDBRANCH   3   4
BRANCH   2  12
ATOM     12  C   UNL     1       0.762   6.143  -5.701  0.00  0.00    -0.005 C 
ATOM     13  C   UNL     1       0.208   6.897  -4.778  0.00  0.00    -0.005 C 
BRANCH  13  14
ATOM     14  C   UNL     1      -0.571   6.293  -3.690  0.00  0.00    -0.031 C 
ATOM     15  C   UNL     1      -2.027   6.618  -3.559  0.00  0.00    +0.018 C 
ATOM     16  C   UNL     1      -2.412   7.697  -4.557  0.00  0.00    +0.004 C 
ATOM     17  C   UNL     1      -2.895   5.396  -3.676  0.00  0.00    +0.004 C 
ATOM     18  C   UNL     1      -2.196   7.222  -2.179  0.00  0.00    +0.004 C 
ATOM     19  C   UNL     1      -1.780   6.285  -1.080  0.00  0.00    +0.005 C 
ATOM     20  C   UNL     1      -0.772   5.249  -1.546  0.00  0.00    +0.022 C 
ATOM     21  C   UNL     1       0.081   5.865  -2.610  0.00  0.00    -0.048 C 
ATOM     22  C   UNL     1       1.466   6.326  -2.283  0.00  0.00    +0.026 C 
ENDBRANCH  13  14
ENDBRANCH   2  12
TORSDOF 5
ENDMDL
MODEL 7
REMARK VINA RESULT:      -7.3      2.202      3.458
REMARK  Name = 
REMARK  5 active torsions:
REMARK  status: ('A' for Active; 'I' for Inactive)
REMARK    1  A    between atoms: C_2  and  C_3
REMARK    2  A    between atoms: C_4  and  C_5
REMARK    3  A    between atoms: C_14  and  C_15
REMARK    4  A    between atoms: C_16  and  C_17
REMARK    5  A    between atoms: C_19  and  C_20
REMARK                            x       y       z     vdW  Elec       q    Type
REMARK                         _______ _______ _______ _____ _____    ______ ____
ROOT
ATOM      1  C   UNL     1       2.592   4.033  -8.146  0.00  0.00    +0.031 C 
ATOM      2  C   UNL     1       3.694   5.044  -8.113  0.00  0.00    -0.022 C 
ATOM      3  C   UNL     1       3.358   6.248  -7.647  0.00  0.00    -0.004 C 
ENDROOT
BRANCH   3   4
ATOM      4  C   UNL     1       2.472   6.254  -6.480  0.00  0.00    -0.001 C 
ATOM      5  C   UNL     1       2.739   6.929  -5.376  0.00  0.00    -0.004 C 
BRANCH   5   6
ATOM      6  C   UNL     1       2.512   6.415  -4.041  0.00  0.00    -0.015 C 
ATOM      7  C   UNL     1       3.530   6.446  -3.189  0.00  0.00    +0.082 C 
ATOM      8  C   UNL     1       1.147   6.196  -3.471  0.00  0.00    +0.031 C 
BRANCH   7   9
ATOM      9  C   UNL     1       4.886   6.171  -3.673  0.00  0.00    +0.388 C 
ATOM     10  O   UNL     1       5.680   7.218  -4.152  0.00  0.00    -0.241 OA
ATOM     11  O   UNL     1       5.068   5.052  -4.241  0.00  0.00    -0.241 OA
ENDBRANCH   7   9
ENDBRANCH   5   6
ENDBRANCH   3   4
BRANCH   2  12
ATOM     12  C   UNL     1       4.691   4.971  -9.188  0.00  0.00    -0.005 C 
ATOM     13  C   UNL     1       4.956   5.991  -9.974  0.00  0.00    -0.005 C 
BRANCH  13  14
ATOM     14  C   UNL     1       5.583   5.780 -11.285  0.00  0.00    -0.031 C 
ATOM     15  C   UNL     1       6.952   6.329 -11.542  0.00  0.00    +0.018 C 
ATOM     16  C   UNL     1       7.401   7.182 -10.369  0.00  0.00    +0.004 C 
ATOM     17  C   UNL     1       7.943   5.249 -11.876  0.00  0.00    +0.004 C 
ATOM     18  C   UNL     1       6.809   7.262 -12.729  0.00  0.00    +0.004 C 
ATOM     19  C   UNL     1       6.298   6.564 -13.957  0.00  0.00    +0.005 C 
ATOM     20  C   UNL     1       5.497   5.316 -13.630  0.00  0.00    +0.022 C 
ATOM     21  C   UNL     1       4.793   5.533 -12.329  0.00  0.00    -0.048 C 
ATOM     22  C   UNL     1       3.333   5.859 -12.315  0.00  0.00    +0.026 C 
ENDBRANCH  13  14
ENDBRANCH   2  12
TORSDOF 5
ENDMDL
MODEL 8
REMARK VINA RESULT:      -7.2      3.203      9.114
REMARK  Name = 
REMARK  5 active torsions:
REMARK  status: ('A' for Active; 'I' for Inactive)
REMARK    1  A    between atoms: C_2  and  C_3
REMARK    2  A    between atoms: C_4  and  C_5
REMARK    3  A    between atoms: C_14  and  C_15
REMARK    4  A    between atoms: C_16  and  C_17
REMARK    5  A    between atoms: C_19  and  C_20
REMARK                            x       y       z     vdW  Elec       q    Type
REMARK                         _______ _______ _______ _____ _____    ______ ____
ROOT
ATOM      1  C   UNL     1       3.943   6.447  -5.430  0.00  0.00    +0.031 C 
ATOM      2  C   UNL     1       2.524   6.274  -5.872  0.00  0.00    -0.022 C 
ATOM      3  C   UNL     1       2.284   6.550  -7.155  0.00  0.00    -0.004 C 
ENDROOT
BRANCH   3   4
ATOM      4  C   UNL     1       3.294   6.081  -8.108  0.00  0.00    -0.001 C 
ATOM      5  C   UNL     1       3.691   6.795  -9.146  0.00  0.00    -0.004 C 
BRANCH   5   6
ATOM      6  C   UNL     1       3.932   6.240 -10.462  0.00  0.00    -0.015 C 
ATOM      7  C   UNL     1       5.137   5.739 -10.706  0.00  0.00    +0.082 C 
ATOM      8  C   UNL     1       2.833   5.876 -11.409  0.00  0.00    +0.031 C 
BRANCH   7   9
ATOM      9  C   UNL     1       6.321   6.402 -10.151  0.00  0.00    +0.388 C 
ATOM     10  O   UNL     1       6.941   7.431 -10.866  0.00  0.00    -0.241 OA
ATOM     11  O   UNL     1       7.098   5.682  -9.455  0.00  0.00    -0.241 OA
ENDBRANCH   7   9
ENDBRANCH   5   6
ENDBRANCH   3   4
BRANCH   2  12
ATOM     12  C   UNL     1       1.481   6.590  -4.889  0.00  0.00    -0.005 C 
ATOM     13  C   UNL     1       0.525   5.743  -4.579  0.00  0.00    -0.005 C 
BRANCH  13  14
ATOM     14  C   UNL     1      -0.726   6.218  -3.974  0.00  0.00    -0.031 C 
ATOM     15  C   UNL     1      -0.983   5.965  -2.521  0.00  0.00    +0.018 C 
ATOM     16  C   UNL     1       0.108   5.079  -1.945  0.00  0.00    +0.004 C 
ATOM     17  C   UNL     1      -1.151   7.242  -1.744  0.00  0.00    +0.004 C 
ATOM     18  C   UNL     1      -2.270   5.168  -2.458  0.00  0.00    +0.004 C 
ATOM     19  C   UNL     1      -3.435   5.897  -3.065  0.00  0.00    +0.005 C 
ATOM     20  C   UNL     1      -3.007   6.930  -4.094  0.00  0.00    +0.022 C 
ATOM     21  C   UNL     1      -1.770   6.435  -4.773  0.00  0.00    -0.048 C 
ATOM     22  C   UNL     1      -1.856   5.846  -6.146  0.00  0.00    +0.026 C 
ENDBRANCH  13  14
ENDBRANCH   2  12
TORSDOF 5
ENDMDL
MODEL 9
REMARK VINA RESULT:      -7.1      2.109      3.518
REMARK  Name = 
REMARK  5 active torsions:
REMARK  status: ('A' for Active; 'I' for Inactive)
REMARK    1  A    between atoms: C_2  and  C_3
REMARK    2  A    between atoms: C_4  and  C_5
REMARK    3  A    between atoms: C_14  and  C_15
REMARK    4  A    between atoms: C_16  and  C_17
REMARK    5  A    between atoms: C_19  and  C_20
REMARK                            x       y       z     vdW  Elec       q    Type
REMARK                         _______ _______ _______ _____ _____    ______ ____
ROOT
ATOM      1  C   UNL     1       4.395   5.595  -6.592  0.00  0.00    +0.031 C 
ATOM      2  C   UNL     1       3.392   5.415  -7.687  0.00  0.00    -0.022 C 
ATOM      3  C   UNL     1       2.535   4.406  -7.524  0.00  0.00    -0.004 C 
ENDROOT
BRANCH   3   4
ATOM      4  C   UNL     1       2.012   4.228  -6.166  0.00  0.00    -0.001 C 
ATOM      5  C   UNL     1       0.898   4.798  -5.743  0.00  0.00    -0.004 C 
BRANCH   5   6
ATOM      6  C   UNL     1       0.744   5.392  -4.431  0.00  0.00    -0.015 C 
ATOM      7  C   UNL     1      -0.491   5.646  -4.013  0.00  0.00    +0.082 C 
ATOM      8  C   UNL     1       1.830   5.397  -3.404  0.00  0.00    +0.031 C 
BRANCH   7   9
ATOM      9  C   UNL     1      -1.492   6.129  -4.969  0.00  0.00    +0.388 C 
ATOM     10  O   UNL     1      -1.751   7.499  -5.073  0.00  0.00    -0.241 OA
ATOM     11  O   UNL     1      -2.489   5.374  -5.174  0.00  0.00    -0.241 OA
ENDBRANCH   7   9
ENDBRANCH   5   6
ENDBRANCH   3   4
BRANCH   2  12
ATOM     12  C   UNL     1       3.838   5.732  -9.050  0.00  0.00    -0.005 C 
ATOM     13  C   UNL     1       4.626   4.936  -9.737  0.00  0.00    -0.005 C 
BRANCH  13  14
ATOM     14  C   UNL     1       5.411   5.455 -10.864  0.00  0.00    -0.031 C 
ATOM     15  C   UNL     1       6.804   5.948 -10.623  0.00  0.00    +0.018 C 
ATOM     16  C   UNL     1       7.107   5.952  -9.135  0.00  0.00    +0.004 C 
ATOM     17  C   UNL     1       7.825   5.173 -11.411  0.00  0.00    +0.004 C 
ATOM     18  C   UNL     1       6.818   7.395 -11.074  0.00  0.00    +0.004 C 
ATOM     19  C   UNL     1       6.461   7.555 -12.525  0.00  0.00    +0.005 C 
ATOM     20  C   UNL     1       5.619   6.405 -13.050  0.00  0.00    +0.022 C 
ATOM     21  C   UNL     1       4.758   5.903 -11.935  0.00  0.00    -0.048 C 
ATOM     22  C   UNL     1       3.309   6.273 -11.885  0.00  0.00    +0.026 C 
ENDBRANCH  13  14
ENDBRANCH   2  12
TORSDOF 5
ENDMDL
