MODEL 1
REMARK VINA RESULT:      -6.8      0.000      0.000
REMARK  Name = 
REMARK  0 active torsions:
REMARK  status: ('A' for Active; 'I' for Inactive)
REMARK                            x       y       z     vdW  Elec       q    Type
REMARK                         _______ _______ _______ _____ _____    ______ ____
ROOT
ATOM      1  C   UNL     1      -2.799   5.765  -6.671  0.00  0.00    +0.000 C 
ATOM      2  C   UNL     1      -1.940   5.593  -5.453  0.00  0.00    +0.001 C 
ATOM      3  C   UNL     1      -1.311   5.644  -6.813  0.00  0.00    +0.000 C 
ATOM      4  C   UNL     1       0.177   5.524  -6.956  0.00  0.00    +0.001 C 
ATOM      5  C   UNL     1       1.037   5.353  -5.738  0.00  0.00    +0.000 C 
ATOM      6  C   UNL     1       0.407   5.301  -4.378  0.00  0.00    +0.001 C 
ATOM      7  C   UNL     1      -0.222   5.250  -3.017  0.00  0.00    +0.018 C 
ATOM      8  C   UNL     1      -1.711   5.371  -2.875  0.00  0.00    +0.077 C 
ATOM      9  N   UNL     1      -2.340   5.319  -1.514  0.00  0.00    -0.134 NA
ATOM     10  C   UNL     1       0.807   5.575  -8.317  0.00  0.00    +0.000 C 
ATOM     11  C   UNL     1      -1.045   5.564  -6.089  0.00  0.00    +0.018 C 
ATOM     12  C   UNL     1      -2.570   5.542  -4.092  0.00  0.00    +0.018 C 
ATOM     13  C   UNL     1      -0.452   5.473  -5.596  0.00  0.00    +0.000 C 
ENDROOT
TORSDOF 0
ENDMDL
MODEL 2
REMARK VINA RESULT:      -6.8      0.532      2.252
REMARK  Name = 
REMARK  0 active torsions:
REMARK  status: ('A' for Active; 'I' for Inactive)
REMARK                            x       y       z     vdW  Elec       q    Type
REMARK                         _______ _______ _______ _____ _____    ______ ____
ROOT
ATOM      1  C   UNL     1       1.543   5.346  -4.934  0.00  0.00    +0.000 C 
ATOM      2  C   UNL     1       0.077   5.381  -4.617  0.00  0.00    +0.001 C 
ATOM      3  C   UNL     1       0.537   5.426  -6.044  0.00  0.00    +0.000 C 
ATOM      4  C   UNL     1      -0.468   5.507  -7.154  0.00  0.00    +0.001 C 
ATOM      5  C   UNL     1      -1.934   5.542  -6.837  0.00  0.00    +0.000 C 
ATOM      6  C   UNL     1      -2.395   5.497  -5.410  0.00  0.00    +0.001 C 
ATOM      7  C   UNL     1      -2.855   5.452  -3.984  0.00  0.00    +0.018 C 
ATOM      8  C   UNL     1      -1.849   5.371  -2.873  0.00  0.00    +0.077 C 
ATOM      9  N   UNL     1      -2.310   5.326  -1.447  0.00  0.00    -0.134 NA
ATOM     10  C   UNL     1      -0.008   5.552  -8.581  0.00  0.00    +0.000 C 
ATOM     11  C   UNL     1      -0.153   5.434  -5.690  0.00  0.00    +0.018 C 
ATOM     12  C   UNL     1      -0.384   5.336  -3.190  0.00  0.00    +0.018 C 
ATOM     13  C   UNL     1      -0.928   5.462  -5.727  0.00  0.00    +0.000 C 
ENDROOT
TORSDOF 0
ENDMDL
MODEL 3
REMARK VINA RESULT:      -6.6      2.233      3.756
REMARK  Name = 
REMARK  0 active torsions:
REMARK  status: ('A' for Active; 'I' for Inactive)
REMARK                            x       y       z     vdW  Elec       q    Type
REMARK                         _______ _______ _______ _____ _____    ______ ____
ROOT
ATOM      1  C   UNL     1      -2.795   5.961  -6.464  0.00  0.00    +0.000 C 
ATOM      2  C   UNL     1      -1.424   5.623  -5.957  0.00  0.00    +0.001 C 
ATOM      3  C   UNL     1      -2.507   6.007  -4.992  0.00  0.00    +0.000 C 
ATOM      4  C   UNL     1      -2.219   6.052  -3.521  0.00  0.00    +0.001 C 
ATOM      5  C   UNL     1      -0.848   5.715  -3.014  0.00  0.00    +0.000 C 
ATOM      6  C   UNL     1       0.235   5.332  -3.978  0.00  0.00    +0.001 C 
ATOM      7  C   UNL     1       1.318   4.948  -4.943  0.00  0.00    +0.018 C 
ATOM      8  C   UNL     1       1.030   4.903  -6.415  0.00  0.00    +0.077 C 
ATOM      9  N   UNL     1       2.113   4.519  -7.378  0.00  0.00    -0.134 NA
ATOM     10  C   UNL     1      -3.302   6.436  -2.557  0.00  0.00    +0.000 C 
ATOM     11  C   UNL     1      -1.760   5.805  -4.927  0.00  0.00    +0.018 C 
ATOM     12  C   UNL     1      -0.341   5.240  -6.921  0.00  0.00    +0.018 C 
ATOM     13  C   UNL     1      -1.136   5.669  -4.486  0.00  0.00    +0.000 C 
ENDROOT
TORSDOF 0
ENDMDL
MODEL 4
REMARK VINA RESULT:      -6.5      6.517      8.823
REMARK  Name = 
REMARK  0 active torsions:
REMARK  status: ('A' for Active; 'I' for Inactive)
REMARK                            x       y       z     vdW  Elec       q    Type
REMARK                         _______ _______ _______ _____ _____    ______ ____
ROOT
ATOM      1  C   UNL     1       5.213   5.477 -12.968  0.00  0.00    +0.000 C 
ATOM      2  C   UNL     1       5.197   5.472 -11.468  0.00  0.00    +0.001 C 
ATOM      3  C   UNL     1       6.498   5.605 -12.203  0.00  0.00    +0.000 C 
ATOM      4  C   UNL     1       7.782   5.733 -11.439  0.00  0.00    +0.001 C 
ATOM      5  C   UNL     1       7.766   5.728  -9.939  0.00  0.00    +0.000 C 
ATOM      6  C   UNL     1       6.465   5.595  -9.204  0.00  0.00    +0.001 C 
ATOM      7  C   UNL     1       5.165   5.462  -8.468  0.00  0.00    +0.018 C 
ATOM      8  C   UNL     1       3.880   5.334  -9.233  0.00  0.00    +0.077 C 
ATOM      9  N   UNL     1       2.581   5.202  -8.496  0.00  0.00    -0.134 NA
ATOM     10  C   UNL     1       9.082   5.866 -12.175  0.00  0.00    +0.000 C 
ATOM     11  C   UNL     1       6.290   5.582 -11.456  0.00  0.00    +0.018 C 
ATOM     12  C   UNL     1       3.897   5.339 -10.732  0.00  0.00    +0.018 C 
ATOM     13  C   UNL     1       6.481   5.600 -10.704  0.00  0.00    +0.000 C 
ENDROOT
TORSDOF 0
ENDMDL
MODEL 5
REMARK VINA RESULT:      -6.5      7.506      9.729
REMARK  Name = 
REMARK  0 active torsions:
REMARK  status: ('A' for Active; 'I' for Inactive)
REMARK                            x       y       z     vdW  Elec       q    Type
REMARK                         _______ _______ _______ _____ _____    ______ ____
ROOT
ATOM      1  C   UNL     1       7.354   5.772  -9.056  0.00  0.00    +0.000 C 
ATOM      2  C   UNL     1       6.310   5.718 -10.133  0.00  0.00    +0.001 C 
ATOM      3  C   UNL     1       7.763   5.793 -10.499  0.00  0.00    +0.000 C 
ATOM      4  C   UNL     1       8.172   5.814 -11.941  0.00  0.00    +0.001 C 
ATOM      5  C   UNL     1       7.129   5.759 -13.018  0.00  0.00    +0.000 C 
ATOM      6  C   UNL     1       5.677   5.684 -12.652  0.00  0.00    +0.001 C 
ATOM      7  C   UNL     1       4.224   5.608 -12.286  0.00  0.00    +0.018 C 
ATOM      8  C   UNL     1       3.815   5.588 -10.842  0.00  0.00    +0.077 C 
ATOM      9  N   UNL     1       2.362   5.512 -10.477  0.00  0.00    -0.134 NA
ATOM     10  C   UNL     1       9.625   5.889 -12.308  0.00  0.00    +0.000 C 
ATOM     11  C   UNL     1       7.098   5.758 -10.897  0.00  0.00    +0.018 C 
ATOM     12  C   UNL     1       4.858   5.642  -9.766  0.00  0.00    +0.018 C 
ATOM     13  C   UNL     1       6.720   5.738 -11.575  0.00  0.00    +0.000 C 
ENDROOT
TORSDOF 0
ENDMDL
MODEL 6
REMARK VINA RESULT:      -6.3      8.046     10.393
REMARK  Name = 
REMARK  0 active torsions:
REMARK  status: ('A' for Active; 'I' for Inactive)
REMARK                            x       y       z     vdW  Elec       q    Type
REMARK                         _______ _______ _______ _____ _____    ______ ____
ROOT
ATOM      1  C   UNL     1       8.977   5.938 -12.055  0.00  0.00    +0.000 C 
ATOM      2  C   UNL     1       7.548   5.824 -11.613  0.00  0.00    +0.001 C 
ATOM      3  C   UNL     1       7.871   5.995 -13.067  0.00  0.00    +0.000 C 
ATOM      4  C   UNL     1       6.766   6.051 -14.079  0.00  0.00    +0.001 C 
ATOM      5  C   UNL     1       5.337   5.937 -13.637  0.00  0.00    +0.000 C 
ATOM      6  C   UNL     1       5.014   5.766 -12.182  0.00  0.00    +0.001 C 
ATOM      7  C   UNL     1       4.691   5.596 -10.727  0.00  0.00    +0.018 C 
ATOM      8  C   UNL     1       5.797   5.539  -9.715  0.00  0.00    +0.077 C 
ATOM      9  N   UNL     1       5.473   5.368  -8.261  0.00  0.00    -0.134 NA
ATOM     10  C   UNL     1       7.090   6.222 -15.534  0.00  0.00    +0.000 C 
ATOM     11  C   UNL     1       7.218   5.920 -12.655  0.00  0.00    +0.018 C 
ATOM     12  C   UNL     1       7.225   5.653 -10.158  0.00  0.00    +0.018 C 
ATOM     13  C   UNL     1       6.443   5.881 -12.625  0.00  0.00    +0.000 C 
ENDROOT
TORSDOF 0
ENDMDL
MODEL 7
REMARK VINA RESULT:      -6.2      6.633      9.065
REMARK  Name = 
REMARK  0 active torsions:
REMARK  status: ('A' for Active; 'I' for Inactive)
REMARK                            x       y       z     vdW  Elec       q    Type
REMARK                         _______ _______ _______ _____ _____    ______ ____
ROOT
ATOM      1  C   UNL     1       3.830   5.747 -11.998  0.00  0.00    +0.000 C 
ATOM      2  C   UNL     1       5.158   5.685 -11.302  0.00  0.00    +0.001 C 
ATOM      3  C   UNL     1       3.890   5.590 -10.507  0.00  0.00    +0.000 C 
ATOM      4  C   UNL     1       3.950   5.433  -9.017  0.00  0.00    +0.001 C 
ATOM      5  C   UNL     1       5.278   5.371  -8.321  0.00  0.00    +0.000 C 
ATOM      6  C   UNL     1       6.546   5.466  -9.117  0.00  0.00    +0.001 C 
ATOM      7  C   UNL     1       7.814   5.561  -9.912  0.00  0.00    +0.018 C 
ATOM      8  C   UNL     1       7.754   5.717 -11.403  0.00  0.00    +0.077 C 
ATOM      9  N   UNL     1       9.023   5.812 -12.197  0.00  0.00    -0.134 NA
ATOM     10  C   UNL     1       2.681   5.339  -8.222  0.00  0.00    +0.000 C 
ATOM     11  C   UNL     1       4.647   5.578 -10.337  0.00  0.00    +0.018 C 
ATOM     12  C   UNL     1       6.427   5.779 -12.098  0.00  0.00    +0.018 C 
ATOM     13  C   UNL     1       5.218   5.528  -9.812  0.00  0.00    +0.000 C 
ENDROOT
TORSDOF 0
ENDMDL
MODEL 8
REMARK VINA RESULT:      -6.1      5.891      7.771
REMARK  Name = 
REMARK  0 active torsions:
REMARK  status: ('A' for Active; 'I' for Inactive)
REMARK                            x       y       z     vdW  Elec       q    Type
REMARK                         _______ _______ _______ _____ _____    ______ ____
ROOT
ATOM      1  C   UNL     1       5.243   4.931  -8.038  0.00  0.00    +0.000 C 
ATOM      2  C   UNL     1       4.317   5.277  -9.166  0.00  0.00    +0.001 C 
ATOM      3  C   UNL     1       5.757   5.694  -9.223  0.00  0.00    +0.000 C 
ATOM      4  C   UNL     1       6.271   6.456 -10.408  0.00  0.00    +0.001 C 
ATOM      5  C   UNL     1       5.345   6.802 -11.537  0.00  0.00    +0.000 C 
ATOM      6  C   UNL     1       3.905   6.385 -11.480  0.00  0.00    +0.001 C 
ATOM      7  C   UNL     1       2.465   5.968 -11.423  0.00  0.00    +0.018 C 
ATOM      8  C   UNL     1       1.951   5.206 -10.237  0.00  0.00    +0.077 C 
ATOM      9  N   UNL     1       0.512   4.789 -10.181  0.00  0.00    -0.134 NA
ATOM     10  C   UNL     1       7.711   6.872 -10.465  0.00  0.00    +0.000 C 
ATOM     11  C   UNL     1       5.143   5.775  -9.691  0.00  0.00    +0.018 C 
ATOM     12  C   UNL     1       2.877   4.860  -9.109  0.00  0.00    +0.018 C 
ATOM     13  C   UNL     1       4.831   6.039 -10.351  0.00  0.00    +0.000 C 
ENDROOT
TORSDOF 0
ENDMDL
MODEL 9
REMARK VINA RESULT:      -6.0      7.095      9.510
REMARK  Name = 
REMARK  0 active torsions:
REMARK  status: ('A' for Active; 'I' for Inactive)
REMARK                            x       y       z     vdW  Elec       q    Type
REMARK                         _______ _______ _______ _____ _____    ______ ____
ROOT
ATOM      1  C   UNL     1       5.644   5.360  -8.444  0.00  0.00    +0.000 C 
ATOM      2  C   UNL     1       6.022   5.535  -9.885  0.00  0.00    +0.001 C 
ATOM      3  C   UNL     1       4.576   5.461  -9.493  0.00  0.00    +0.000 C 
ATOM      4  C   UNL     1       3.509   5.561 -10.541  0.00  0.00    +0.001 C 
ATOM      5  C   UNL     1       3.887   5.736 -11.983  0.00  0.00    +0.000 C 
ATOM      6  C   UNL     1       5.333   5.810 -12.375  0.00  0.00    +0.001 C 
ATOM      7  C   UNL     1       6.779   5.885 -12.767  0.00  0.00    +0.018 C 
ATOM      8  C   UNL     1       7.847   5.784 -11.718  0.00  0.00    +0.077 C 
ATOM      9  N   UNL     1       9.292   5.858 -12.111  0.00  0.00    -0.134 NA
ATOM     10  C   UNL     1       2.063   5.487 -10.149  0.00  0.00    +0.000 C 
ATOM     11  C   UNL     1       4.960   5.546 -10.162  0.00  0.00    +0.018 C 
ATOM     12  C   UNL     1       7.468   5.609 -10.277  0.00  0.00    +0.018 C 
ATOM     13  C   UNL     1       4.955   5.636 -10.934  0.00  0.00    +0.000 C 
ENDROOT
TORSDOF 0
ENDMDL
