MODEL 1
REMARK VINA RESULT:      -6.6      0.000      0.000
REMARK  Name = 
REMARK  2 active torsions:
REMARK  status: ('A' for Active; 'I' for Inactive)
REMARK    1  A    between atoms: C_2  and  N_4
REMARK    2  A    between atoms: N_10  and  C_11
REMARK                            x       y       z     vdW  Elec       q    Type
REMARK                         _______ _______ _______ _____ _____    ______ ____
ROOT
ATOM      1  N   UNL     1       3.562   7.382  -5.626  0.00  0.00    -0.093 NA
ATOM      2  C   UNL     1       3.078   6.415  -6.575  0.00  0.00    +0.505 C 
ATOM      3  N   UNL     1       1.833   6.692  -7.253  0.00  0.00    +0.011 NA
ATOM      4  C   UNL     1       1.504   5.716  -8.251  0.00  0.00    +0.510 C 
ATOM      5  N   UNL     1       2.546   5.034  -8.630  0.00  0.00    -0.063 NA
ATOM      6  N   UNL     1       0.165   5.426  -8.666  0.00  0.00    +0.133 NA
ATOM      7  N   UNL     1       3.040   5.203  -6.076  0.00  0.00    +0.132 NA
ENDROOT
BRANCH   5   8
ATOM      8  C   UNL     1       3.697   5.861  -8.921  0.00  0.00    +0.159 A 
ATOM      9  C   UNL     1       3.742   6.641 -10.079  0.00  0.00    +0.038 A 
ATOM     10  C   UNL     1       4.918   7.233 -10.514  0.00  0.00    +0.014 A 
ATOM     11  C   UNL     1       6.056   6.471 -10.346  0.00  0.00    +0.058 A 
ATOM     12 CL   UNL     1       7.570   7.200 -10.868  0.00  0.00    -0.082 Cl
ATOM     13  C   UNL     1       6.026   5.387  -9.482  0.00  0.00    +0.014 A 
ATOM     14  C   UNL     1       4.894   5.164  -8.752  0.00  0.00    +0.038 A 
ENDBRANCH   5   8
BRANCH   1  16
ATOM     15  C   UNL     1       3.267   7.525  -3.184  0.00  0.00    +0.047 C 
ATOM     16  C   UNL     1       4.093   7.018  -4.334  0.00  0.00    +0.181 C 
ATOM     17  C   UNL     1       5.470   7.654  -4.191  0.00  0.00    +0.047 C 
ENDBRANCH   1  16
TORSDOF 2
ENDMDL
MODEL 2
REMARK VINA RESULT:      -6.4      3.429      5.352
REMARK  Name = 
REMARK  2 active torsions:
REMARK  status: ('A' for Active; 'I' for Inactive)
REMARK    1  A    between atoms: C_2  and  N_4
REMARK    2  A    between atoms: N_10  and  C_11
REMARK                            x       y       z     vdW  Elec       q    Type
REMARK                         _______ _______ _______ _____ _____    ______ ____
ROOT
ATOM      1  N   UNL     1      -0.118   6.411  -5.639  0.00  0.00    -0.093 NA
ATOM      2  C   UNL     1       1.134   5.958  -6.185  0.00  0.00    +0.505 C 
ATOM      3  N   UNL     1       1.758   6.759  -7.211  0.00  0.00    +0.011 NA
ATOM      4  C   UNL     1       3.048   6.271  -7.603  0.00  0.00    +0.510 C 
ATOM      5  N   UNL     1       3.567   5.485  -6.705  0.00  0.00    -0.063 NA
ATOM      6  N   UNL     1       3.624   6.501  -8.894  0.00  0.00    +0.133 NA
ATOM      7  N   UNL     1       1.081   4.709  -6.581  0.00  0.00    +0.132 NA
ENDROOT
BRANCH   5   8
ATOM      8  C   UNL     1       3.482   6.017  -5.362  0.00  0.00    +0.159 A 
ATOM      9  C   UNL     1       4.100   7.224  -5.030  0.00  0.00    +0.038 A 
ATOM     10  C   UNL     1       4.258   7.625  -3.713  0.00  0.00    +0.014 A 
ATOM     11  C   UNL     1       4.564   6.614  -2.824  0.00  0.00    +0.058 A 
ATOM     12 CL   UNL     1       4.750   7.084  -1.138  0.00  0.00    -0.082 Cl
ATOM     13  C   UNL     1       4.351   5.296  -3.196  0.00  0.00    +0.014 A 
ATOM     14  C   UNL     1       3.757   5.044  -4.399  0.00  0.00    +0.038 A 
ENDBRANCH   5   8
BRANCH   1  16
ATOM     15  C   UNL     1      -2.375   5.751  -6.375  0.00  0.00    +0.047 C 
ATOM     16  C   UNL     1      -1.241   5.532  -5.412  0.00  0.00    +0.181 C 
ATOM     17  C   UNL     1      -1.793   5.819  -4.021  0.00  0.00    +0.047 C 
ENDBRANCH   1  16
TORSDOF 2
ENDMDL
MODEL 3
REMARK VINA RESULT:      -6.3      4.721      6.430
REMARK  Name = 
REMARK  2 active torsions:
REMARK  status: ('A' for Active; 'I' for Inactive)
REMARK    1  A    between atoms: C_2  and  N_4
REMARK    2  A    between atoms: N_10  and  C_11
REMARK                            x       y       z     vdW  Elec       q    Type
REMARK                         _______ _______ _______ _____ _____    ______ ____
ROOT
ATOM      1  N   UNL     1       2.458   5.022  -4.153  0.00  0.00    -0.093 NA
ATOM      2  C   UNL     1       1.793   5.672  -5.252  0.00  0.00    +0.505 C 
ATOM      3  N   UNL     1       1.455   4.876  -6.409  0.00  0.00    +0.011 NA
ATOM      4  C   UNL     1       0.703   5.599  -7.392  0.00  0.00    +0.510 C 
ATOM      5  N   UNL     1       0.132   6.657  -6.892  0.00  0.00    -0.063 NA
ATOM      6  N   UNL     1       0.707   5.278  -8.788  0.00  0.00    +0.133 NA
ATOM      7  N   UNL     1       2.417   6.758  -5.639  0.00  0.00    +0.132 NA
ENDROOT
BRANCH   5   8
ATOM      8  C   UNL     1      -0.554   6.400  -5.644  0.00  0.00    +0.159 A 
ATOM      9  C   UNL     1      -1.661   5.549  -5.600  0.00  0.00    +0.038 A 
ATOM     10  C   UNL     1      -2.489   5.487  -4.490  0.00  0.00    +0.014 A 
ATOM     11  C   UNL     1      -2.727   6.695  -3.867  0.00  0.00    +0.058 A 
ATOM     12 CL   UNL     1      -3.758   6.651  -2.441  0.00  0.00    -0.082 Cl
ATOM     13  C   UNL     1      -1.897   7.773  -4.136  0.00  0.00    +0.014 A 
ATOM     14  C   UNL     1      -0.813   7.577  -4.941  0.00  0.00    +0.038 A 
ENDBRANCH   5   8
BRANCH   1  16
ATOM     15  C   UNL     1       4.912   5.077  -3.947  0.00  0.00    +0.047 C 
ATOM     16  C   UNL     1       3.587   5.601  -3.465  0.00  0.00    +0.181 C 
ATOM     17  C   UNL     1       3.485   5.229  -1.990  0.00  0.00    +0.047 C 
ENDBRANCH   1  16
TORSDOF 2
ENDMDL
MODEL 4
REMARK VINA RESULT:      -6.2      2.452      2.905
REMARK  Name = 
REMARK  2 active torsions:
REMARK  status: ('A' for Active; 'I' for Inactive)
REMARK    1  A    between atoms: C_2  and  N_4
REMARK    2  A    between atoms: N_10  and  C_11
REMARK                            x       y       z     vdW  Elec       q    Type
REMARK                         _______ _______ _______ _____ _____    ______ ____
ROOT
ATOM      1  N   UNL     1       3.109   7.299  -4.487  0.00  0.00    -0.093 NA
ATOM      2  C   UNL     1       2.129   6.297  -4.814  0.00  0.00    +0.505 C 
ATOM      3  N   UNL     1       0.753   6.712  -4.954  0.00  0.00    +0.011 NA
ATOM      4  C   UNL     1      -0.115   5.656  -5.387  0.00  0.00    +0.510 C 
ATOM      5  N   UNL     1       0.542   4.683  -5.950  0.00  0.00    -0.063 NA
ATOM      6  N   UNL     1      -1.516   5.611  -5.094  0.00  0.00    +0.133 NA
ATOM      7  N   UNL     1       2.191   5.260  -4.015  0.00  0.00    +0.132 NA
ENDROOT
BRANCH   5   8
ATOM      8  C   UNL     1       1.509   5.136  -6.927  0.00  0.00    +0.159 A 
ATOM      9  C   UNL     1       1.114   5.919  -8.014  0.00  0.00    +0.038 A 
ATOM     10  C   UNL     1       1.954   6.147  -9.092  0.00  0.00    +0.014 A 
ATOM     11  C   UNL     1       2.728   5.070  -9.472  0.00  0.00    +0.058 A 
ATOM     12 CL   UNL     1       3.824   5.330 -10.824  0.00  0.00    -0.082 Cl
ATOM     13  C   UNL     1       2.888   4.007  -8.595  0.00  0.00    +0.014 A 
ATOM     14  C   UNL     1       2.348   4.103  -7.346  0.00  0.00    +0.038 A 
ENDBRANCH   5   8
BRANCH   1  16
ATOM     15  C   UNL     1       4.013   8.016  -2.310  0.00  0.00    +0.047 C 
ATOM     16  C   UNL     1       4.137   7.097  -3.494  0.00  0.00    +0.181 C 
ATOM     17  C   UNL     1       5.484   7.402  -4.138  0.00  0.00    +0.047 C 
ENDBRANCH   1  16
TORSDOF 2
ENDMDL
MODEL 5
REMARK VINA RESULT:      -6.1      3.727      6.354
REMARK  Name = 
REMARK  2 active torsions:
REMARK  status: ('A' for Active; 'I' for Inactive)
REMARK    1  A    between atoms: C_2  and  N_4
REMARK    2  A    between atoms: N_10  and  C_11
REMARK                            x       y       z     vdW  Elec       q    Type
REMARK                         _______ _______ _______ _____ _____    ______ ____
ROOT
ATOM      1  N   UNL     1       2.524   6.417  -8.940  0.00  0.00    -0.093 NA
ATOM      2  C   UNL     1       2.478   5.576  -7.773  0.00  0.00    +0.505 C 
ATOM      3  N   UNL     1       3.435   5.821  -6.720  0.00  0.00    +0.011 NA
ATOM      4  C   UNL     1       3.228   4.998  -5.565  0.00  0.00    +0.510 C 
ATOM      5  N   UNL     1       2.021   4.512  -5.521  0.00  0.00    -0.063 NA
ATOM      6  N   UNL     1       4.270   4.633  -4.653  0.00  0.00    +0.133 NA
ATOM      7  N   UNL     1       2.484   4.301  -8.078  0.00  0.00    +0.132 NA
ENDROOT
BRANCH   5   8
ATOM      8  C   UNL     1       0.996   5.501  -5.775  0.00  0.00    +0.159 A 
ATOM      9  C   UNL     1       0.756   6.532  -4.864  0.00  0.00    +0.038 A 
ATOM     10  C   UNL     1      -0.374   7.330  -4.947  0.00  0.00    +0.014 A 
ATOM     11  C   UNL     1      -1.530   6.675  -5.318  0.00  0.00    +0.058 A 
ATOM     12 CL   UNL     1      -2.981   7.662  -5.454  0.00  0.00    -0.082 Cl
ATOM     13  C   UNL     1      -1.441   5.421  -5.903  0.00  0.00    +0.014 A 
ATOM     14  C   UNL     1      -0.204   4.915  -6.179  0.00  0.00    +0.038 A 
ENDBRANCH   5   8
BRANCH   1  16
ATOM     15  C   UNL     1       3.544   6.353 -11.182  0.00  0.00    +0.047 C 
ATOM     16  C   UNL     1       2.425   5.901 -10.285  0.00  0.00    +0.181 C 
ATOM     17  C   UNL     1       1.136   6.432 -10.901  0.00  0.00    +0.047 C 
ENDBRANCH   1  16
TORSDOF 2
ENDMDL
MODEL 6
REMARK VINA RESULT:      -6.1      2.778      5.162
REMARK  Name = 
REMARK  2 active torsions:
REMARK  status: ('A' for Active; 'I' for Inactive)
REMARK    1  A    between atoms: C_2  and  N_4
REMARK    2  A    between atoms: N_10  and  C_11
REMARK                            x       y       z     vdW  Elec       q    Type
REMARK                         _______ _______ _______ _____ _____    ______ ____
ROOT
ATOM      1  N   UNL     1       5.123   5.316 -10.187  0.00  0.00    -0.093 NA
ATOM      2  C   UNL     1       3.937   6.048  -9.828  0.00  0.00    +0.505 C 
ATOM      3  N   UNL     1       2.662   5.543 -10.284  0.00  0.00    +0.011 NA
ATOM      4  C   UNL     1       1.546   6.288  -9.779  0.00  0.00    +0.510 C 
ATOM      5  N   UNL     1       1.858   6.981  -8.721  0.00  0.00    -0.063 NA
ATOM      6  N   UNL     1       0.284   6.378 -10.449  0.00  0.00    +0.133 NA
ATOM      7  N   UNL     1       4.029   7.322 -10.123  0.00  0.00    +0.132 NA
ENDROOT
BRANCH   5   8
ATOM      8  C   UNL     1       2.598   6.219  -7.737  0.00  0.00    +0.159 A 
ATOM      9  C   UNL     1       2.024   5.109  -7.113  0.00  0.00    +0.038 A 
ATOM     10  C   UNL     1       2.597   4.525  -5.995  0.00  0.00    +0.014 A 
ATOM     11  C   UNL     1       3.156   5.406  -5.093  0.00  0.00    +0.058 A 
ATOM     12 CL   UNL     1       3.912   4.696  -3.670  0.00  0.00    -0.082 Cl
ATOM     13  C   UNL     1       3.427   6.706  -5.493  0.00  0.00    +0.014 A 
ATOM     14  C   UNL     1       3.215   7.046  -6.797  0.00  0.00    +0.038 A 
ENDBRANCH   5   8
BRANCH   1  16
ATOM     15  C   UNL     1       6.869   5.339 -11.924  0.00  0.00    +0.047 C 
ATOM     16  C   UNL     1       6.326   5.955 -10.665  0.00  0.00    +0.181 C 
ATOM     17  C   UNL     1       7.405   5.789  -9.601  0.00  0.00    +0.047 C 
ENDBRANCH   1  16
TORSDOF 2
ENDMDL
MODEL 7
REMARK VINA RESULT:      -6.0      3.280      4.740
REMARK  Name = 
REMARK  2 active torsions:
REMARK  status: ('A' for Active; 'I' for Inactive)
REMARK    1  A    between atoms: C_2  and  N_4
REMARK    2  A    between atoms: N_10  and  C_11
REMARK                            x       y       z     vdW  Elec       q    Type
REMARK                         _______ _______ _______ _____ _____    ______ ____
ROOT
ATOM      1  N   UNL     1       3.760   6.180  -9.283  0.00  0.00    -0.093 NA
ATOM      2  C   UNL     1       2.446   5.593  -9.313  0.00  0.00    +0.505 C 
ATOM      3  N   UNL     1       1.453   6.102  -8.396  0.00  0.00    +0.011 NA
ATOM      4  C   UNL     1       0.157   5.522  -8.588  0.00  0.00    +0.510 C 
ATOM      5  N   UNL     1       0.029   4.988  -9.768  0.00  0.00    -0.063 NA
ATOM      6  N   UNL     1      -0.824   5.410  -7.550  0.00  0.00    +0.133 NA
ATOM      7  N   UNL     1       2.482   4.286  -9.233  0.00  0.00    +0.132 NA
ENDROOT
BRANCH   5   8
ATOM      8  C   UNL     1       0.494   5.845 -10.837  0.00  0.00    +0.159 A 
ATOM      9  C   UNL     1      -0.223   6.987 -11.201  0.00  0.00    +0.038 A 
ATOM     10  C   UNL     1       0.048   7.675 -12.373  0.00  0.00    +0.014 A 
ATOM     11  C   UNL     1       0.367   6.885 -13.458  0.00  0.00    +0.058 A 
ATOM     12 CL   UNL     1       0.738   7.727 -14.958  0.00  0.00    -0.082 Cl
ATOM     13  C   UNL     1       0.735   5.564 -13.251  0.00  0.00    +0.014 A 
ATOM     14  C   UNL     1       0.860   5.114 -11.968  0.00  0.00    +0.038 A 
ENDBRANCH   5   8
BRANCH   1  16
ATOM     15  C   UNL     1       5.612   5.217  -7.975  0.00  0.00    +0.047 C 
ATOM     16  C   UNL     1       4.971   5.395  -9.323  0.00  0.00    +0.181 C 
ATOM     17  C   UNL     1       5.985   6.133 -10.190  0.00  0.00    +0.047 C 
ENDBRANCH   1  16
TORSDOF 2
ENDMDL
MODEL 8
REMARK VINA RESULT:      -6.0      4.575      6.688
REMARK  Name = 
REMARK  2 active torsions:
REMARK  status: ('A' for Active; 'I' for Inactive)
REMARK    1  A    between atoms: C_2  and  N_4
REMARK    2  A    between atoms: N_10  and  C_11
REMARK                            x       y       z     vdW  Elec       q    Type
REMARK                         _______ _______ _______ _____ _____    ______ ____
ROOT
ATOM      1  N   UNL     1      -0.511   6.478  -3.280  0.00  0.00    -0.093 NA
ATOM      2  C   UNL     1       0.737   6.216  -3.948  0.00  0.00    +0.505 C 
ATOM      3  N   UNL     1       1.204   7.180  -4.917  0.00  0.00    +0.011 NA
ATOM      4  C   UNL     1       2.504   6.872  -5.439  0.00  0.00    +0.510 C 
ATOM      5  N   UNL     1       3.161   6.056  -4.665  0.00  0.00    -0.063 NA
ATOM      6  N   UNL     1       2.960   7.292  -6.729  0.00  0.00    +0.133 NA
ATOM      7  N   UNL     1       0.778   5.016  -4.475  0.00  0.00    +0.132 NA
ENDROOT
BRANCH   5   8
ATOM      8  C   UNL     1       3.121   6.435  -3.269  0.00  0.00    +0.159 A 
ATOM      9  C   UNL     1       3.653   7.655  -2.844  0.00  0.00    +0.038 A 
ATOM     10  C   UNL     1       3.865   7.930  -1.502  0.00  0.00    +0.014 A 
ATOM     11  C   UNL     1       4.317   6.866  -0.749  0.00  0.00    +0.058 A 
ATOM     12 CL   UNL     1       4.577   7.173   0.965  0.00  0.00    -0.082 Cl
ATOM     13  C   UNL     1       4.195   5.579  -1.251  0.00  0.00    +0.014 A 
ATOM     14  C   UNL     1       3.545   5.398  -2.437  0.00  0.00    +0.038 A 
ENDBRANCH   5   8
BRANCH   1  16
ATOM     15  C   UNL     1      -2.680   5.587  -4.036  0.00  0.00    +0.047 C 
ATOM     16  C   UNL     1      -1.523   5.467  -3.083  0.00  0.00    +0.181 C 
ATOM     17  C   UNL     1      -2.097   5.640  -1.681  0.00  0.00    +0.047 C 
ENDBRANCH   1  16
TORSDOF 2
ENDMDL
MODEL 9
REMARK VINA RESULT:      -5.9      3.811      5.539
REMARK  Name = 
REMARK  2 active torsions:
REMARK  status: ('A' for Active; 'I' for Inactive)
REMARK    1  A    between atoms: C_2  and  N_4
REMARK    2  A    between atoms: N_10  and  C_11
REMARK                            x       y       z     vdW  Elec       q    Type
REMARK                         _______ _______ _______ _____ _____    ______ ____
ROOT
ATOM      1  N   UNL     1       4.919   7.210 -10.928  0.00  0.00    -0.093 NA
ATOM      2  C   UNL     1       3.826   6.333 -10.599  0.00  0.00    +0.505 C 
ATOM      3  N   UNL     1       3.023   6.653  -9.442  0.00  0.00    +0.011 NA
ATOM      4  C   UNL     1       1.901   5.775  -9.273  0.00  0.00    +0.510 C 
ATOM      5  N   UNL     1       1.595   5.155 -10.376  0.00  0.00    -0.063 NA
ATOM      6  N   UNL     1       1.291   5.503  -8.006  0.00  0.00    +0.133 NA
ATOM      7  N   UNL     1       4.196   5.077 -10.538  0.00  0.00    +0.132 NA
ENDROOT
BRANCH   5   8
ATOM      8  C   UNL     1       1.536   6.029 -11.527  0.00  0.00    +0.159 A 
ATOM      9  C   UNL     1       0.529   6.990 -11.645  0.00  0.00    +0.038 A 
ATOM     10  C   UNL     1       0.292   7.655 -12.837  0.00  0.00    +0.014 A 
ATOM     11  C   UNL     1       0.423   6.886 -13.975  0.00  0.00    +0.058 A 
ATOM     12 CL   UNL     1       0.151   7.705 -15.509  0.00  0.00    -0.082 Cl
ATOM     13  C   UNL     1       1.094   5.675 -13.902  0.00  0.00    +0.014 A 
ATOM     14  C   UNL     1       1.685   5.325 -12.723  0.00  0.00    +0.038 A 
ENDBRANCH   5   8
BRANCH   1  16
ATOM     15  C   UNL     1       7.336   7.296 -10.462  0.00  0.00    +0.047 C 
ATOM     16  C   UNL     1       6.227   6.728 -11.303  0.00  0.00    +0.181 C 
ATOM     17  C   UNL     1       6.501   7.169 -12.736  0.00  0.00    +0.047 C 
ENDBRANCH   1  16
TORSDOF 2
ENDMDL
