MODEL 1
REMARK VINA RESULT:      -6.5      0.000      0.000
REMARK  Name = 
REMARK  6 active torsions:
REMARK  status: ('A' for Active; 'I' for Inactive)
REMARK    1  A    between atoms: C_2  and  N_4
REMARK    2  A    between atoms: N_4  and  C_5
REMARK    3  A    between atoms: C_5  and  C_6
REMARK    4  A    between atoms: C_6  and  C_8
REMARK    5  A    between atoms: C_11  and  N_12
REMARK    6  A    between atoms: N_12  and  S_13
REMARK                            x       y       z     vdW  Elec       q    Type
REMARK                         _______ _______ _______ _____ _____    ______ ____
ROOT
ATOM      1  C   UNL     1       4.458   5.581  -8.958  0.00  0.00    +0.009 A 
ATOM      2  C   UNL     1       3.939   6.678  -9.564  0.00  0.00    -0.000 A 
ATOM      3  C   UNL     1       4.690   7.168 -10.634  0.00  0.00    +0.018 A 
ATOM      4  C   UNL     1       5.929   6.661 -10.921  0.00  0.00    +0.091 A 
ATOM      5  C   UNL     1       6.557   5.978  -9.887  0.00  0.00    +0.018 A 
ATOM      6  C   UNL     1       5.802   5.383  -8.883  0.00  0.00    -0.000 A 
ENDROOT
BRANCH   1   7
ATOM      7  C   UNL     1       3.585   4.906  -7.768  0.00  0.00    +0.192 C 
ATOM      8  O   UNL     1       4.480   5.520  -6.690  0.00  0.00    -0.217 OA
BRANCH   7   9
ATOM      9  C   UNL     1       2.555   6.210  -7.721  0.00  0.00    +0.126 C 
BRANCH   9  10
ATOM     10  N   UNL     1       1.409   5.661  -7.060  0.00  0.00    -0.216 NA
BRANCH  10  12
ATOM     11  C   UNL     1      -1.015   5.217  -7.022  0.00  0.00    +0.019 C 
ATOM     12  C   UNL     1       0.170   5.760  -7.743  0.00  0.00    +0.073 C 
ATOM     13  C   UNL     1       0.193   5.498  -9.204  0.00  0.00    +0.019 C 
ENDBRANCH  10  12
ENDBRANCH   9  10
ENDBRANCH   7   9
ENDBRANCH   1   7
BRANCH   4  14
ATOM     14  N   UNL     1       6.659   6.837 -12.106  0.00  0.00    -0.101 NA
BRANCH  14  15
ATOM     15  S   UNL     1       6.666   5.614 -13.303  0.00  0.00    +0.075 S 
ATOM     16  O   UNL     1       7.823   4.677 -13.039  0.00  0.00    -0.153 OA
ATOM     17  O   UNL     1       5.406   4.831 -13.163  0.00  0.00    -0.153 OA
ATOM     18  C   UNL     1       6.887   6.207 -14.945  0.00  0.00    +0.202 C 
ENDBRANCH  14  15
ENDBRANCH   4  14
TORSDOF 6
ENDMDL
MODEL 2
REMARK VINA RESULT:      -6.4      5.313      8.686
REMARK  Name = 
REMARK  6 active torsions:
REMARK  status: ('A' for Active; 'I' for Inactive)
REMARK    1  A    between atoms: C_2  and  N_4
REMARK    2  A    between atoms: N_4  and  C_5
REMARK    3  A    between atoms: C_5  and  C_6
REMARK    4  A    between atoms: C_6  and  C_8
REMARK    5  A    between atoms: C_11  and  N_12
REMARK    6  A    between atoms: N_12  and  S_13
REMARK                            x       y       z     vdW  Elec       q    Type
REMARK                         _______ _______ _______ _____ _____    ______ ____
ROOT
ATOM      1  C   UNL     1       0.793   6.050  -7.099  0.00  0.00    +0.009 A 
ATOM      2  C   UNL     1       0.773   7.059  -6.193  0.00  0.00    -0.000 A 
ATOM      3  C   UNL     1      -0.270   6.997  -5.267  0.00  0.00    +0.018 A 
ATOM      4  C   UNL     1      -1.271   6.071  -5.390  0.00  0.00    +0.091 A 
ATOM      5  C   UNL     1      -1.430   5.516  -6.654  0.00  0.00    +0.018 A 
ATOM      6  C   UNL     1      -0.357   5.467  -7.535  0.00  0.00    -0.000 A 
ENDROOT
BRANCH   1   7
ATOM      7  C   UNL     1       2.034   6.014  -8.144  0.00  0.00    +0.192 C 
ATOM      8  O   UNL     1       1.531   7.263  -8.869  0.00  0.00    -0.217 OA
BRANCH   7   9
ATOM      9  C   UNL     1       2.979   6.927  -7.125  0.00  0.00    +0.126 C 
BRANCH   9  10
ATOM     10  N   UNL     1       4.026   6.010  -6.789  0.00  0.00    -0.216 NA
BRANCH  10  12
ATOM     11  C   UNL     1       4.055   4.826  -4.628  0.00  0.00    +0.019 C 
ATOM     12  C   UNL     1       4.461   6.007  -5.439  0.00  0.00    +0.073 C 
ATOM     13  C   UNL     1       4.418   7.307  -4.723  0.00  0.00    +0.019 C 
ENDBRANCH  10  12
ENDBRANCH   9  10
ENDBRANCH   7   9
ENDBRANCH   1   7
BRANCH   4  14
ATOM     14  N   UNL     1      -2.201   5.697  -4.407  0.00  0.00    -0.101 NA
BRANCH  14  15
ATOM     15  S   UNL     1      -1.759   5.709  -2.754  0.00  0.00    +0.075 S 
ATOM     16  O   UNL     1      -2.759   4.885  -1.974  0.00  0.00    -0.153 OA
ATOM     17  O   UNL     1      -0.429   5.045  -2.632  0.00  0.00    -0.153 OA
ATOM     18  C   UNL     1      -1.762   7.305  -2.014  0.00  0.00    +0.202 C 
ENDBRANCH  14  15
ENDBRANCH   4  14
TORSDOF 6
ENDMDL
MODEL 3
REMARK VINA RESULT:      -6.3      1.184      1.444
REMARK  Name = 
REMARK  6 active torsions:
REMARK  status: ('A' for Active; 'I' for Inactive)
REMARK    1  A    between atoms: C_2  and  N_4
REMARK    2  A    between atoms: N_4  and  C_5
REMARK    3  A    between atoms: C_5  and  C_6
REMARK    4  A    between atoms: C_6  and  C_8
REMARK    5  A    between atoms: C_11  and  N_12
REMARK    6  A    between atoms: N_12  and  S_13
REMARK                            x       y       z     vdW  Elec       q    Type
REMARK                         _______ _______ _______ _____ _____    ______ ____
ROOT
ATOM      1  C   UNL     1       4.400   5.587  -9.046  0.00  0.00    +0.009 A 
ATOM      2  C   UNL     1       3.929   6.710  -9.642  0.00  0.00    -0.000 A 
ATOM      3  C   UNL     1       4.728   7.206 -10.674  0.00  0.00    +0.018 A 
ATOM      4  C   UNL     1       5.963   6.674 -10.931  0.00  0.00    +0.091 A 
ATOM      5  C   UNL     1       6.538   5.952  -9.893  0.00  0.00    +0.018 A 
ATOM      6  C   UNL     1       5.736   5.352  -8.931  0.00  0.00    -0.000 A 
ENDROOT
BRANCH   1   7
ATOM      7  C   UNL     1       3.470   4.907  -7.903  0.00  0.00    +0.192 C 
ATOM      8  O   UNL     1       2.697   6.207  -7.682  0.00  0.00    -0.217 OA
BRANCH   7   9
ATOM      9  C   UNL     1       2.371   4.391  -9.038  0.00  0.00    +0.126 C 
BRANCH   9  10
ATOM     10  N   UNL     1       1.247   5.238  -8.770  0.00  0.00    -0.216 NA
BRANCH  10  12
ATOM     11  C   UNL     1       0.241   4.342 -10.834  0.00  0.00    +0.019 C 
ATOM     12  C   UNL     1       0.336   5.445  -9.838  0.00  0.00    +0.073 C 
ATOM     13  C   UNL     1       0.279   6.814 -10.408  0.00  0.00    +0.019 C 
ENDBRANCH  10  12
ENDBRANCH   9  10
ENDBRANCH   7   9
ENDBRANCH   1   7
BRANCH   4  14
ATOM     14  N   UNL     1       6.738   6.859 -12.087  0.00  0.00    -0.101 NA
BRANCH  14  15
ATOM     15  S   UNL     1       6.765   5.659 -13.307  0.00  0.00    +0.075 S 
ATOM     16  O   UNL     1       7.909   4.708 -13.033  0.00  0.00    -0.153 OA
ATOM     17  O   UNL     1       5.496   4.884 -13.213  0.00  0.00    -0.153 OA
ATOM     18  C   UNL     1       7.031   6.282 -14.931  0.00  0.00    +0.202 C 
ENDBRANCH  14  15
ENDBRANCH   4  14
TORSDOF 6
ENDMDL
MODEL 4
REMARK VINA RESULT:      -6.3      4.929      7.744
REMARK  Name = 
REMARK  6 active torsions:
REMARK  status: ('A' for Active; 'I' for Inactive)
REMARK    1  A    between atoms: C_2  and  N_4
REMARK    2  A    between atoms: N_4  and  C_5
REMARK    3  A    between atoms: C_5  and  C_6
REMARK    4  A    between atoms: C_6  and  C_8
REMARK    5  A    between atoms: C_11  and  N_12
REMARK    6  A    between atoms: N_12  and  S_13
REMARK                            x       y       z     vdW  Elec       q    Type
REMARK                         _______ _______ _______ _____ _____    ______ ____
ROOT
ATOM      1  C   UNL     1      -2.142   6.034  -4.491  0.00  0.00    +0.009 A 
ATOM      2  C   UNL     1      -2.622   5.484  -5.634  0.00  0.00    -0.000 A 
ATOM      3  C   UNL     1      -1.703   5.413  -6.683  0.00  0.00    +0.018 A 
ATOM      4  C   UNL     1      -0.474   6.009  -6.588  0.00  0.00    +0.091 A 
ATOM      5  C   UNL     1      -0.358   7.007  -5.628  0.00  0.00    +0.018 A 
ATOM      6  C   UNL     1      -1.193   7.009  -4.518  0.00  0.00    -0.000 A 
ENDROOT
BRANCH   1   7
ATOM      7  C   UNL     1      -3.132   6.059  -3.205  0.00  0.00    +0.192 C 
ATOM      8  O   UNL     1      -2.801   4.607  -2.855  0.00  0.00    -0.217 OA
BRANCH   7   9
ATOM      9  C   UNL     1      -1.916   6.622  -2.222  0.00  0.00    +0.126 C 
BRANCH   9  10
ATOM     10  N   UNL     1      -1.430   5.413  -1.627  0.00  0.00    -0.216 NA
BRANCH  10  12
ATOM     11  C   UNL     1       0.330   6.502  -0.288  0.00  0.00    +0.019 C 
ATOM     12  C   UNL     1      -0.073   5.407  -1.214  0.00  0.00    +0.073 C 
ATOM     13  C   UNL     1       0.935   5.052  -2.244  0.00  0.00    +0.019 C 
ENDBRANCH  10  12
ENDBRANCH   9  10
ENDBRANCH   7   9
ENDBRANCH   1   7
BRANCH   4  14
ATOM     14  N   UNL     1       0.640   5.782  -7.412  0.00  0.00    -0.101 NA
BRANCH  14  15
ATOM     15  S   UNL     1       1.872   4.702  -6.918  0.00  0.00    +0.075 S 
ATOM     16  O   UNL     1       2.935   5.479  -6.174  0.00  0.00    -0.153 OA
ATOM     17  O   UNL     1       1.269   3.728  -5.963  0.00  0.00    -0.153 OA
ATOM     18  C   UNL     1       2.699   3.891  -8.241  0.00  0.00    +0.202 C 
ENDBRANCH  14  15
ENDBRANCH   4  14
TORSDOF 6
ENDMDL
MODEL 5
REMARK VINA RESULT:      -6.3      1.768      2.312
REMARK  Name = 
REMARK  6 active torsions:
REMARK  status: ('A' for Active; 'I' for Inactive)
REMARK    1  A    between atoms: C_2  and  N_4
REMARK    2  A    between atoms: N_4  and  C_5
REMARK    3  A    between atoms: C_5  and  C_6
REMARK    4  A    between atoms: C_6  and  C_8
REMARK    5  A    between atoms: C_11  and  N_12
REMARK    6  A    between atoms: N_12  and  S_13
REMARK                            x       y       z     vdW  Elec       q    Type
REMARK                         _______ _______ _______ _____ _____    ______ ____
ROOT
ATOM      1  C   UNL     1       3.502   5.792  -8.917  0.00  0.00    +0.009 A 
ATOM      2  C   UNL     1       3.569   6.914  -9.677  0.00  0.00    -0.000 A 
ATOM      3  C   UNL     1       4.731   7.038 -10.440  0.00  0.00    +0.018 A 
ATOM      4  C   UNL     1       5.775   6.164 -10.288  0.00  0.00    +0.091 A 
ATOM      5  C   UNL     1       5.800   5.455  -9.094  0.00  0.00    +0.018 A 
ATOM      6  C   UNL     1       4.622   5.224  -8.393  0.00  0.00    -0.000 A 
ENDROOT
BRANCH   1   7
ATOM      7  C   UNL     1       2.135   5.542  -8.079  0.00  0.00    +0.192 C 
ATOM      8  O   UNL     1       1.379   5.109  -9.337  0.00  0.00    -0.217 OA
BRANCH   7   9
ATOM      9  C   UNL     1       2.572   3.974  -7.744  0.00  0.00    +0.126 C 
BRANCH   9  10
ATOM     10  N   UNL     1       1.980   3.768  -6.456  0.00  0.00    -0.216 NA
BRANCH  10  12
ATOM     11  C   UNL     1       3.553   4.685  -4.796  0.00  0.00    +0.019 C 
ATOM     12  C   UNL     1       2.230   4.761  -5.475  0.00  0.00    +0.073 C 
ATOM     13  C   UNL     1       1.092   5.129  -4.595  0.00  0.00    +0.019 C 
ENDBRANCH  10  12
ENDBRANCH   9  10
ENDBRANCH   7   9
ENDBRANCH   1   7
BRANCH   4  14
ATOM     14  N   UNL     1       6.857   5.982 -11.162  0.00  0.00    -0.101 NA
BRANCH  14  15
ATOM     15  S   UNL     1       6.582   5.564 -12.799  0.00  0.00    +0.075 S 
ATOM     16  O   UNL     1       7.711   4.677 -13.274  0.00  0.00    -0.153 OA
ATOM     17  O   UNL     1       5.322   4.770 -12.862  0.00  0.00    -0.153 OA
ATOM     18  C   UNL     1       6.546   6.935 -13.901  0.00  0.00    +0.202 C 
ENDBRANCH  14  15
ENDBRANCH   4  14
TORSDOF 6
ENDMDL
MODEL 6
REMARK VINA RESULT:      -6.2      1.255      1.920
REMARK  Name = 
REMARK  6 active torsions:
REMARK  status: ('A' for Active; 'I' for Inactive)
REMARK    1  A    between atoms: C_2  and  N_4
REMARK    2  A    between atoms: N_4  and  C_5
REMARK    3  A    between atoms: C_5  and  C_6
REMARK    4  A    between atoms: C_6  and  C_8
REMARK    5  A    between atoms: C_11  and  N_12
REMARK    6  A    between atoms: N_12  and  S_13
REMARK                            x       y       z     vdW  Elec       q    Type
REMARK                         _______ _______ _______ _____ _____    ______ ____
ROOT
ATOM      1  C   UNL     1       4.145   6.245  -8.313  0.00  0.00    +0.009 A 
ATOM      2  C   UNL     1       5.166   5.359  -8.428  0.00  0.00    -0.000 A 
ATOM      3  C   UNL     1       5.882   5.441  -9.623  0.00  0.00    +0.018 A 
ATOM      4  C   UNL     1       5.464   6.250 -10.646  0.00  0.00    +0.091 A 
ATOM      5  C   UNL     1       4.127   6.626 -10.610  0.00  0.00    +0.018 A 
ATOM      6  C   UNL     1       3.443   6.663  -9.401  0.00  0.00    -0.000 A 
ENDROOT
BRANCH   1   7
ATOM      7  C   UNL     1       3.332   6.264  -6.908  0.00  0.00    +0.192 C 
ATOM      8  O   UNL     1       2.715   7.628  -7.221  0.00  0.00    -0.217 OA
BRANCH   7   9
ATOM      9  C   UNL     1       2.041   5.471  -7.592  0.00  0.00    +0.126 C 
BRANCH   9  10
ATOM     10  N   UNL     1       1.695   4.530  -6.568  0.00  0.00    -0.216 NA
BRANCH  10  12
ATOM     11  C   UNL     1      -0.634   5.315  -6.740  0.00  0.00    +0.019 C 
ATOM     12  C   UNL     1       0.455   4.732  -5.910  0.00  0.00    +0.073 C 
ATOM     13  C   UNL     1       0.517   5.232  -4.513  0.00  0.00    +0.019 C 
ENDBRANCH  10  12
ENDBRANCH   9  10
ENDBRANCH   7   9
ENDBRANCH   1   7
BRANCH   4  14
ATOM     14  N   UNL     1       6.213   6.657 -11.760  0.00  0.00    -0.101 NA
BRANCH  14  15
ATOM     15  S   UNL     1       6.502   5.568 -13.049  0.00  0.00    +0.075 S 
ATOM     16  O   UNL     1       7.631   4.639 -12.662  0.00  0.00    -0.153 OA
ATOM     17  O   UNL     1       5.275   4.741 -13.231  0.00  0.00    -0.153 OA
ATOM     18  C   UNL     1       6.999   6.337 -14.551  0.00  0.00    +0.202 C 
ENDBRANCH  14  15
ENDBRANCH   4  14
TORSDOF 6
ENDMDL
MODEL 7
REMARK VINA RESULT:      -6.1      5.192      9.068
REMARK  Name = 
REMARK  6 active torsions:
REMARK  status: ('A' for Active; 'I' for Inactive)
REMARK    1  A    between atoms: C_2  and  N_4
REMARK    2  A    between atoms: N_4  and  C_5
REMARK    3  A    between atoms: C_5  and  C_6
REMARK    4  A    between atoms: C_6  and  C_8
REMARK    5  A    between atoms: C_11  and  N_12
REMARK    6  A    between atoms: N_12  and  S_13
REMARK                            x       y       z     vdW  Elec       q    Type
REMARK                         _______ _______ _______ _____ _____    ______ ____
ROOT
ATOM      1  C   UNL     1       0.284   5.578  -6.883  0.00  0.00    +0.009 A 
ATOM      2  C   UNL     1      -1.054   5.458  -7.073  0.00  0.00    -0.000 A 
ATOM      3  C   UNL     1      -1.839   5.858  -5.990  0.00  0.00    +0.018 A 
ATOM      4  C   UNL     1      -1.273   6.185  -4.787  0.00  0.00    +0.091 A 
ATOM      5  C   UNL     1       0.013   5.702  -4.573  0.00  0.00    +0.018 A 
ATOM      6  C   UNL     1       0.841   5.419  -5.651  0.00  0.00    -0.000 A 
ENDROOT
BRANCH   1   7
ATOM      7  C   UNL     1       1.249   5.219  -8.138  0.00  0.00    +0.192 C 
ATOM      8  O   UNL     1       0.097   5.364  -9.134  0.00  0.00    -0.217 OA
BRANCH   7   9
ATOM      9  C   UNL     1       1.675   6.815  -8.326  0.00  0.00    +0.126 C 
BRANCH   9  10
ATOM     10  N   UNL     1       3.068   6.791  -7.992  0.00  0.00    -0.216 NA
BRANCH  10  12
ATOM     11  C   UNL     1       5.002   5.278  -8.200  0.00  0.00    +0.019 C 
ATOM     12  C   UNL     1       3.919   6.059  -8.859  0.00  0.00    +0.073 C 
ATOM     13  C   UNL     1       4.306   6.723 -10.129  0.00  0.00    +0.019 C 
ENDBRANCH  10  12
ENDBRANCH   9  10
ENDBRANCH   7   9
ENDBRANCH   1   7
BRANCH   4  14
ATOM     14  N   UNL     1      -1.882   6.871  -3.726  0.00  0.00    -0.101 NA
BRANCH  14  15
ATOM     15  S   UNL     1      -2.676   6.003  -2.482  0.00  0.00    +0.075 S 
ATOM     16  O   UNL     1      -4.043   6.609  -2.257  0.00  0.00    -0.153 OA
ATOM     17  O   UNL     1      -2.871   4.603  -2.956  0.00  0.00    -0.153 OA
ATOM     18  C   UNL     1      -1.859   6.057  -0.925  0.00  0.00    +0.202 C 
ENDBRANCH  14  15
ENDBRANCH   4  14
TORSDOF 6
ENDMDL
MODEL 8
REMARK VINA RESULT:      -5.9      5.081      8.532
REMARK  Name = 
REMARK  6 active torsions:
REMARK  status: ('A' for Active; 'I' for Inactive)
REMARK    1  A    between atoms: C_2  and  N_4
REMARK    2  A    between atoms: N_4  and  C_5
REMARK    3  A    between atoms: C_5  and  C_6
REMARK    4  A    between atoms: C_6  and  C_8
REMARK    5  A    between atoms: C_11  and  N_12
REMARK    6  A    between atoms: N_12  and  S_13
REMARK                            x       y       z     vdW  Elec       q    Type
REMARK                         _______ _______ _______ _____ _____    ______ ____
ROOT
ATOM      1  C   UNL     1       0.876   5.930  -7.141  0.00  0.00    +0.009 A 
ATOM      2  C   UNL     1       0.890   6.907  -6.201  0.00  0.00    -0.000 A 
ATOM      3  C   UNL     1      -0.161   6.854  -5.284  0.00  0.00    +0.018 A 
ATOM      4  C   UNL     1      -1.198   5.973  -5.445  0.00  0.00    +0.091 A 
ATOM      5  C   UNL     1      -1.369   5.470  -6.728  0.00  0.00    +0.018 A 
ATOM      6  C   UNL     1      -0.292   5.408  -7.604  0.00  0.00    -0.000 A 
ENDROOT
BRANCH   1   7
ATOM      7  C   UNL     1       2.123   5.880  -8.179  0.00  0.00    +0.192 C 
ATOM      8  O   UNL     1       1.618   4.580  -8.808  0.00  0.00    -0.217 OA
BRANCH   7   9
ATOM      9  C   UNL     1       1.293   6.795  -9.292  0.00  0.00    +0.126 C 
BRANCH   9  10
ATOM     10  N   UNL     1       1.523   6.069 -10.505  0.00  0.00    -0.216 NA
BRANCH  10  12
ATOM     11  C   UNL     1       0.602   5.044 -12.548  0.00  0.00    +0.019 C 
ATOM     12  C   UNL     1       0.447   6.012 -11.427  0.00  0.00    +0.073 C 
ATOM     13  C   UNL     1      -0.184   7.304 -11.795  0.00  0.00    +0.019 C 
ENDBRANCH  10  12
ENDBRANCH   9  10
ENDBRANCH   7   9
ENDBRANCH   1   7
BRANCH   4  14
ATOM     14  N   UNL     1      -2.148   5.603  -4.482  0.00  0.00    -0.101 NA
BRANCH  14  15
ATOM     15  S   UNL     1      -1.764   5.685  -2.815  0.00  0.00    +0.075 S 
ATOM     16  O   UNL     1      -2.785   4.883  -2.038  0.00  0.00    -0.153 OA
ATOM     17  O   UNL     1      -0.435   5.039  -2.622  0.00  0.00    -0.153 OA
ATOM     18  C   UNL     1      -1.806   7.308  -2.140  0.00  0.00    +0.202 C 
ENDBRANCH  14  15
ENDBRANCH   4  14
TORSDOF 6
ENDMDL
MODEL 9
REMARK VINA RESULT:      -5.9      3.709      7.372
REMARK  Name = 
REMARK  6 active torsions:
REMARK  status: ('A' for Active; 'I' for Inactive)
REMARK    1  A    between atoms: C_2  and  N_4
REMARK    2  A    between atoms: N_4  and  C_5
REMARK    3  A    between atoms: C_5  and  C_6
REMARK    4  A    between atoms: C_6  and  C_8
REMARK    5  A    between atoms: C_11  and  N_12
REMARK    6  A    between atoms: N_12  and  S_13
REMARK                            x       y       z     vdW  Elec       q    Type
REMARK                         _______ _______ _______ _____ _____    ______ ____
ROOT
ATOM      1  C   UNL     1       3.751   5.611  -8.321  0.00  0.00    +0.009 A 
ATOM      2  C   UNL     1       4.702   5.439  -7.369  0.00  0.00    -0.000 A 
ATOM      3  C   UNL     1       4.369   5.942  -6.110  0.00  0.00    +0.018 A 
ATOM      4  C   UNL     1       3.237   6.689  -5.922  0.00  0.00    +0.091 A 
ATOM      5  C   UNL     1       2.696   7.264  -7.065  0.00  0.00    +0.018 A 
ATOM      6  C   UNL     1       2.926   6.693  -8.310  0.00  0.00    -0.000 A 
ENDROOT
BRANCH   1   7
ATOM      7  C   UNL     1       4.038   4.965  -9.782  0.00  0.00    +0.192 C 
ATOM      8  O   UNL     1       2.709   5.486 -10.333  0.00  0.00    -0.217 OA
BRANCH   7   9
ATOM      9  C   UNL     1       4.835   6.336 -10.282  0.00  0.00    +0.126 C 
BRANCH   9  10
ATOM     10  N   UNL     1       6.093   5.805 -10.717  0.00  0.00    -0.216 NA
BRANCH  10  12
ATOM     11  C   UNL     1       6.566   8.119 -11.420  0.00  0.00    +0.019 C 
ATOM     12  C   UNL     1       7.067   6.744 -11.144  0.00  0.00    +0.073 C 
ATOM     13  C   UNL     1       8.100   6.250 -12.088  0.00  0.00    +0.019 C 
ENDBRANCH  10  12
ENDBRANCH   9  10
ENDBRANCH   7   9
ENDBRANCH   1   7
BRANCH   4  14
ATOM     14  N   UNL     1       2.628   7.005  -4.698  0.00  0.00    -0.101 NA
BRANCH  14  15
ATOM     15  S   UNL     1       1.203   6.191  -4.209  0.00  0.00    +0.075 S 
ATOM     16  O   UNL     1       0.002   6.984  -4.674  0.00  0.00    -0.153 OA
ATOM     17  O   UNL     1       1.172   4.871  -4.901  0.00  0.00    -0.153 OA
ATOM     18  C   UNL     1       1.027   6.020  -2.467  0.00  0.00    +0.202 C 
ENDBRANCH  14  15
ENDBRANCH   4  14
TORSDOF 6
ENDMDL
