MODEL 1
REMARK VINA RESULT:      -7.0      0.000      0.000
REMARK  Name = 
REMARK  6 active torsions:
REMARK  status: ('A' for Active; 'I' for Inactive)
REMARK    1  A    between atoms: N_2  and  C_3
REMARK    2  A    between atoms: C_3  and  C_4
REMARK    3  A    between atoms: C_4  and  C_5
REMARK    4  A    between atoms: C_5  and  O_6
REMARK    5  A    between atoms: C_5  and  C_17
REMARK    6  A    between atoms: O_6  and  C_7
REMARK                            x       y       z     vdW  Elec       q    Type
REMARK                         _______ _______ _______ _____ _____    ______ ____
ROOT
ATOM      1  O   UNL     1       3.864   4.959  -9.771  0.00  0.00    -0.474 OA
ENDROOT
BRANCH   1   2
ATOM      2  C   UNL     1       5.085   5.522 -10.060  0.00  0.00    +0.139 A 
ATOM      3  C   UNL     1       5.516   5.576 -11.373  0.00  0.00    +0.034 A 
ATOM      4  C   UNL     1       6.813   6.005 -11.631  0.00  0.00    +0.003 A 
ATOM      5  C   UNL     1       7.119   6.585 -12.854  0.00  0.00    +0.000 A 
ATOM      6  C   UNL     1       6.103   6.589 -13.802  0.00  0.00    +0.000 A 
ATOM      7  C   UNL     1       5.158   5.575 -13.728  0.00  0.00    +0.000 A 
ATOM      8  C   UNL     1       7.771   6.073 -10.638  0.00  0.00    +0.000 A 
ATOM      9  C   UNL     1       7.402   5.754  -9.356  0.00  0.00    +0.003 A 
ATOM     10  C   UNL     1       4.745   5.207 -12.450  0.00  0.00    +0.003 A 
ATOM     11  C   UNL     1       6.080   5.534  -9.104  0.00  0.00    +0.037 A 
ENDBRANCH   1   2
BRANCH   1  12
ATOM     12  C   UNL     1       2.745   6.004  -9.416  0.00  0.00    +0.195 C 
BRANCH  12  13
ATOM     13  C   UNL     1       2.594   5.399  -7.887  0.00  0.00    +0.047 A 
ATOM     14  S   UNL     1       1.065   5.812  -7.190  0.00  0.00    -0.087 S 
ATOM     15  C   UNL     1       0.936   4.484  -6.105  0.00  0.00    +0.035 A 
ATOM     16  C   UNL     1       2.124   3.831  -6.417  0.00  0.00    +0.007 A 
ATOM     17  C   UNL     1       2.455   4.020  -7.738  0.00  0.00    +0.006 A 
ENDBRANCH  12  13
BRANCH  12  18
ATOM     18  C   UNL     1       1.567   4.978 -10.044  0.00  0.00    +0.068 C 
BRANCH  18  19
ATOM     19  C   UNL     1       0.981   5.785 -11.192  0.00  0.00    +0.093 C 
BRANCH  19  21
ATOM     20  C   UNL     1      -0.562   7.574 -11.632  0.00  0.00    +0.107 C 
ATOM     21  N   UNL     1      -0.193   6.510 -10.724  0.00  0.00    -0.216 NA
ENDBRANCH  19  21
ENDBRANCH  18  19
ENDBRANCH  12  18
ENDBRANCH   1  12
TORSDOF 6
ENDMDL
MODEL 2
REMARK VINA RESULT:      -7.0      1.423      2.610
REMARK  Name = 
REMARK  6 active torsions:
REMARK  status: ('A' for Active; 'I' for Inactive)
REMARK    1  A    between atoms: N_2  and  C_3
REMARK    2  A    between atoms: C_3  and  C_4
REMARK    3  A    between atoms: C_4  and  C_5
REMARK    4  A    between atoms: C_5  and  O_6
REMARK    5  A    between atoms: C_5  and  C_17
REMARK    6  A    between atoms: O_6  and  C_7
REMARK                            x       y       z     vdW  Elec       q    Type
REMARK                         _______ _______ _______ _____ _____    ______ ____
ROOT
ATOM      1  O   UNL     1       4.035   5.210 -10.555  0.00  0.00    -0.474 OA
ENDROOT
BRANCH   1   2
ATOM      2  C   UNL     1       4.713   5.301 -11.749  0.00  0.00    +0.139 A 
ATOM      3  C   UNL     1       6.012   5.777 -11.760  0.00  0.00    +0.034 A 
ATOM      4  C   UNL     1       6.626   6.008 -12.985  0.00  0.00    +0.003 A 
ATOM      5  C   UNL     1       8.009   5.950 -13.088  0.00  0.00    +0.000 A 
ATOM      6  C   UNL     1       8.705   5.774 -11.897  0.00  0.00    +0.000 A 
ATOM      7  C   UNL     1       8.111   6.246 -10.735  0.00  0.00    +0.000 A 
ATOM      8  C   UNL     1       5.905   6.086 -14.161  0.00  0.00    +0.000 A 
ATOM      9  C   UNL     1       4.551   5.875 -14.107  0.00  0.00    +0.003 A 
ATOM     10  C   UNL     1       6.735   6.060 -10.625  0.00  0.00    +0.003 A 
ATOM     11  C   UNL     1       4.013   5.452 -12.927  0.00  0.00    +0.037 A 
ENDBRANCH   1   2
BRANCH   1  12
ATOM     12  C   UNL     1       2.938   6.318 -10.355  0.00  0.00    +0.195 C 
BRANCH  12  13
ATOM     13  C   UNL     1       3.477   6.646  -8.830  0.00  0.00    +0.047 A 
ATOM     14  S   UNL     1       2.261   7.433  -7.883  0.00  0.00    -0.087 S 
ATOM     15  C   UNL     1       2.796   6.913  -6.335  0.00  0.00    +0.035 A 
ATOM     16  C   UNL     1       3.889   6.147  -6.726  0.00  0.00    +0.007 A 
ATOM     17  C   UNL     1       3.671   5.576  -7.958  0.00  0.00    +0.006 A 
ENDBRANCH  12  13
BRANCH  12  18
ATOM     18  C   UNL     1       1.842   5.156  -9.824  0.00  0.00    +0.068 C 
BRANCH  18  19
ATOM     19  C   UNL     1       0.651   5.355 -10.749  0.00  0.00    +0.093 C 
BRANCH  19  21
ATOM     20  C   UNL     1      -0.431   7.370 -11.485  0.00  0.00    +0.107 C 
ATOM     21  N   UNL     1       0.802   6.615 -11.467  0.00  0.00    -0.216 NA
ENDBRANCH  19  21
ENDBRANCH  18  19
ENDBRANCH  12  18
ENDBRANCH   1  12
TORSDOF 6
ENDMDL
MODEL 3
REMARK VINA RESULT:      -6.9      3.996      8.750
REMARK  Name = 
REMARK  6 active torsions:
REMARK  status: ('A' for Active; 'I' for Inactive)
REMARK    1  A    between atoms: N_2  and  C_3
REMARK    2  A    between atoms: C_3  and  C_4
REMARK    3  A    between atoms: C_4  and  C_5
REMARK    4  A    between atoms: C_5  and  O_6
REMARK    5  A    between atoms: C_5  and  C_17
REMARK    6  A    between atoms: O_6  and  C_7
REMARK                            x       y       z     vdW  Elec       q    Type
REMARK                         _______ _______ _______ _____ _____    ______ ____
ROOT
ATOM      1  O   UNL     1       1.075   4.904  -5.212  0.00  0.00    -0.474 OA
ENDROOT
BRANCH   1   2
ATOM      2  C   UNL     1      -0.165   5.500  -5.206  0.00  0.00    +0.139 A 
ATOM      3  C   UNL     1      -0.835   5.666  -4.007  0.00  0.00    +0.034 A 
ATOM      4  C   UNL     1      -2.146   6.127  -4.035  0.00  0.00    +0.003 A 
ATOM      5  C   UNL     1      -2.663   6.808  -2.942  0.00  0.00    +0.000 A 
ATOM      6  C   UNL     1      -1.844   6.879  -1.821  0.00  0.00    +0.000 A 
ATOM      7  C   UNL     1      -0.927   5.854  -1.634  0.00  0.00    +0.000 A 
ATOM      8  C   UNL     1      -2.897   6.123  -5.194  0.00  0.00    +0.000 A 
ATOM      9  C   UNL     1      -2.301   5.697  -6.353  0.00  0.00    +0.003 A 
ATOM     10  C   UNL     1      -0.290   5.379  -2.777  0.00  0.00    +0.003 A 
ATOM     11  C   UNL     1      -0.961   5.445  -6.331  0.00  0.00    +0.037 A 
ENDBRANCH   1   2
BRANCH   1  12
ATOM     12  C   UNL     1       2.259   5.892  -5.517  0.00  0.00    +0.195 C 
BRANCH  12  13
ATOM     13  C   UNL     1       2.372   5.353  -7.074  0.00  0.00    +0.047 A 
ATOM     14  S   UNL     1       3.942   5.658  -7.737  0.00  0.00    -0.087 S 
ATOM     15  C   UNL     1       3.962   4.381  -8.888  0.00  0.00    +0.035 A 
ATOM     16  C   UNL     1       2.716   3.825  -8.619  0.00  0.00    +0.007 A 
ATOM     17  C   UNL     1       2.387   3.977  -7.293  0.00  0.00    +0.006 A 
ENDBRANCH  12  13
BRANCH  12  18
ATOM     18  C   UNL     1       3.368   4.763  -4.942  0.00  0.00    +0.068 C 
BRANCH  18  19
ATOM     19  C   UNL     1       4.148   5.545  -3.898  0.00  0.00    +0.093 C 
BRANCH  19  21
ATOM     20  C   UNL     1       5.134   7.718  -4.187  0.00  0.00    +0.107 C 
ATOM     21  N   UNL     1       3.900   6.971  -4.077  0.00  0.00    -0.216 NA
ENDBRANCH  19  21
ENDBRANCH  18  19
ENDBRANCH  12  18
ENDBRANCH   1  12
TORSDOF 6
ENDMDL
MODEL 4
REMARK VINA RESULT:      -6.9      4.091      8.172
REMARK  Name = 
REMARK  6 active torsions:
REMARK  status: ('A' for Active; 'I' for Inactive)
REMARK    1  A    between atoms: N_2  and  C_3
REMARK    2  A    between atoms: C_3  and  C_4
REMARK    3  A    between atoms: C_4  and  C_5
REMARK    4  A    between atoms: C_5  and  O_6
REMARK    5  A    between atoms: C_5  and  C_17
REMARK    6  A    between atoms: O_6  and  C_7
REMARK                            x       y       z     vdW  Elec       q    Type
REMARK                         _______ _______ _______ _____ _____    ______ ____
ROOT
ATOM      1  O   UNL     1       1.325   6.118  -5.279  0.00  0.00    -0.474 OA
ENDROOT
BRANCH   1   2
ATOM      2  C   UNL     1      -0.048   6.076  -5.347  0.00  0.00    +0.139 A 
ATOM      3  C   UNL     1      -0.778   5.783  -4.209  0.00  0.00    +0.034 A 
ATOM      4  C   UNL     1      -2.150   5.594  -4.327  0.00  0.00    +0.003 A 
ATOM      5  C   UNL     1      -2.979   5.837  -3.241  0.00  0.00    +0.000 A 
ATOM      6  C   UNL     1      -2.344   6.150  -2.045  0.00  0.00    +0.000 A 
ATOM      7  C   UNL     1      -1.067   5.644  -1.848  0.00  0.00    +0.000 A 
ATOM      8  C   UNL     1      -2.753   5.374  -5.551  0.00  0.00    +0.000 A 
ATOM      9  C   UNL     1      -1.969   5.400  -6.676  0.00  0.00    +0.003 A 
ATOM     10  C   UNL     1      -0.225   5.643  -2.957  0.00  0.00    +0.003 A 
ATOM     11  C   UNL     1      -0.669   5.787  -6.544  0.00  0.00    +0.037 A 
ENDBRANCH   1   2
BRANCH   1  12
ATOM     12  C   UNL     1       2.045   5.713  -6.616  0.00  0.00    +0.195 C 
BRANCH  12  13
ATOM     13  C   UNL     1       3.492   5.535  -5.841  0.00  0.00    +0.047 A 
ATOM     14  S   UNL     1       3.963   6.992  -5.035  0.00  0.00    -0.087 S 
ATOM     15  C   UNL     1       4.932   6.279  -3.808  0.00  0.00    +0.035 A 
ATOM     16  C   UNL     1       4.773   4.940  -4.153  0.00  0.00    +0.007 A 
ATOM     17  C   UNL     1       3.535   4.722  -4.710  0.00  0.00    +0.006 A 
ENDBRANCH  12  13
BRANCH  12  18
ATOM     18  C   UNL     1       2.324   7.335  -6.973  0.00  0.00    +0.068 C 
BRANCH  18  19
ATOM     19  C   UNL     1       2.548   7.324  -8.477  0.00  0.00    +0.093 C 
BRANCH  19  21
ATOM     20  C   UNL     1       0.884   6.629 -10.065  0.00  0.00    +0.107 C 
ATOM     21  N   UNL     1       1.834   6.197  -9.064  0.00  0.00    -0.216 NA
ENDBRANCH  19  21
ENDBRANCH  18  19
ENDBRANCH  12  18
ENDBRANCH   1  12
TORSDOF 6
ENDMDL
MODEL 5
REMARK VINA RESULT:      -6.9      2.788      7.133
REMARK  Name = 
REMARK  6 active torsions:
REMARK  status: ('A' for Active; 'I' for Inactive)
REMARK    1  A    between atoms: N_2  and  C_3
REMARK    2  A    between atoms: C_3  and  C_4
REMARK    3  A    between atoms: C_4  and  C_5
REMARK    4  A    between atoms: C_5  and  O_6
REMARK    5  A    between atoms: C_5  and  C_17
REMARK    6  A    between atoms: O_6  and  C_7
REMARK                            x       y       z     vdW  Elec       q    Type
REMARK                         _______ _______ _______ _____ _____    ______ ____
ROOT
ATOM      1  O   UNL     1       1.410   4.618  -7.850  0.00  0.00    -0.474 OA
ENDROOT
BRANCH   1   2
ATOM      2  C   UNL     1       1.171   4.826  -6.511  0.00  0.00    +0.139 A 
ATOM      3  C   UNL     1      -0.050   5.337  -6.108  0.00  0.00    +0.034 A 
ATOM      4  C   UNL     1      -0.219   5.685  -4.773  0.00  0.00    +0.003 A 
ATOM      5  C   UNL     1      -1.488   5.674  -4.211  0.00  0.00    +0.000 A 
ATOM      6  C   UNL     1      -2.542   5.422  -5.081  0.00  0.00    +0.000 A 
ATOM      7  C   UNL     1      -2.371   5.780  -6.411  0.00  0.00    +0.000 A 
ATOM      8  C   UNL     1       0.854   5.838  -3.917  0.00  0.00    +0.000 A 
ATOM      9  C   UNL     1       2.112   5.584  -4.401  0.00  0.00    +0.003 A 
ATOM     10  C   UNL     1      -1.111   5.548  -6.958  0.00  0.00    +0.003 A 
ATOM     11  C   UNL     1       2.225   5.052  -5.651  0.00  0.00    +0.037 A 
ENDBRANCH   1   2
BRANCH   1  12
ATOM     12  C   UNL     1       2.251   5.756  -8.534  0.00  0.00    +0.195 C 
BRANCH  12  13
ATOM     13  C   UNL     1       1.209   5.825  -9.813  0.00  0.00    +0.047 A 
ATOM     14  S   UNL     1       2.052   6.058 -11.306  0.00  0.00    -0.087 S 
ATOM     15  C   UNL     1       0.899   5.321 -12.345  0.00  0.00    +0.035 A 
ATOM     16  C   UNL     1      -0.044   4.945 -11.394  0.00  0.00    +0.007 A 
ATOM     17  C   UNL     1       0.560   4.651 -10.195  0.00  0.00    +0.006 A 
ENDBRANCH  12  13
BRANCH  12  18
ATOM     18  C   UNL     1       3.235   4.606  -9.271  0.00  0.00    +0.068 C 
BRANCH  18  19
ATOM     19  C   UNL     1       4.614   4.926  -8.717  0.00  0.00    +0.093 C 
BRANCH  19  21
ATOM     20  C   UNL     1       6.802   5.708  -9.332  0.00  0.00    +0.107 C 
ATOM     21  N   UNL     1       5.445   5.480  -9.779  0.00  0.00    -0.216 NA
ENDBRANCH  19  21
ENDBRANCH  18  19
ENDBRANCH  12  18
ENDBRANCH   1  12
TORSDOF 6
ENDMDL
MODEL 6
REMARK VINA RESULT:      -6.8      2.051      3.278
REMARK  Name = 
REMARK  6 active torsions:
REMARK  status: ('A' for Active; 'I' for Inactive)
REMARK    1  A    between atoms: N_2  and  C_3
REMARK    2  A    between atoms: C_3  and  C_4
REMARK    3  A    between atoms: C_4  and  C_5
REMARK    4  A    between atoms: C_5  and  O_6
REMARK    5  A    between atoms: C_5  and  C_17
REMARK    6  A    between atoms: O_6  and  C_7
REMARK                            x       y       z     vdW  Elec       q    Type
REMARK                         _______ _______ _______ _____ _____    ______ ____
ROOT
ATOM      1  O   UNL     1       4.151   6.739 -10.366  0.00  0.00    -0.474 OA
ENDROOT
BRANCH   1   2
ATOM      2  C   UNL     1       5.499   6.499 -10.501  0.00  0.00    +0.139 A 
ATOM      3  C   UNL     1       6.004   6.115 -11.730  0.00  0.00    +0.034 A 
ATOM      4  C   UNL     1       7.336   5.729 -11.812  0.00  0.00    +0.003 A 
ATOM      5  C   UNL     1       8.023   5.860 -13.011  0.00  0.00    +0.000 A 
ATOM      6  C   UNL     1       7.271   6.274 -14.105  0.00  0.00    +0.000 A 
ATOM      7  C   UNL     1       5.919   5.960 -14.106  0.00  0.00    +0.000 A 
ATOM      8  C   UNL     1       8.075   5.412 -10.688  0.00  0.00    +0.000 A 
ATOM      9  C   UNL     1       7.478   5.540  -9.461  0.00  0.00    +0.003 A 
ATOM     10  C   UNL     1       5.258   6.069 -12.885  0.00  0.00    +0.003 A 
ATOM     11  C   UNL     1       6.241   6.112  -9.404  0.00  0.00    +0.037 A 
ENDBRANCH   1   2
BRANCH   1  12
ATOM     12  C   UNL     1       3.432   5.794  -9.337  0.00  0.00    +0.195 C 
BRANCH  12  13
ATOM     13  C   UNL     1       2.362   5.278 -10.483  0.00  0.00    +0.047 A 
ATOM     14  S   UNL     1       0.797   4.988  -9.805  0.00  0.00    -0.087 S 
ATOM     15  C   UNL     1      -0.130   5.261 -11.226  0.00  0.00    +0.035 A 
ATOM     16  C   UNL     1       0.903   5.573 -12.104  0.00  0.00    +0.007 A 
ATOM     17  C   UNL     1       1.937   6.194 -11.444  0.00  0.00    +0.006 A 
ENDBRANCH  12  13
BRANCH  12  18
ATOM     18  C   UNL     1       2.442   7.063  -8.843  0.00  0.00    +0.068 C 
BRANCH  18  19
ATOM     19  C   UNL     1       2.778   7.209  -7.367  0.00  0.00    +0.093 C 
BRANCH  19  21
ATOM     20  C   UNL     1       4.232   6.309  -5.679  0.00  0.00    +0.107 C 
ATOM     21  N   UNL     1       3.554   6.055  -6.931  0.00  0.00    -0.216 NA
ENDBRANCH  19  21
ENDBRANCH  18  19
ENDBRANCH  12  18
ENDBRANCH   1  12
TORSDOF 6
ENDMDL
MODEL 7
REMARK VINA RESULT:      -6.6      4.148      7.326
REMARK  Name = 
REMARK  6 active torsions:
REMARK  status: ('A' for Active; 'I' for Inactive)
REMARK    1  A    between atoms: N_2  and  C_3
REMARK    2  A    between atoms: C_3  and  C_4
REMARK    3  A    between atoms: C_4  and  C_5
REMARK    4  A    between atoms: C_5  and  O_6
REMARK    5  A    between atoms: C_5  and  C_17
REMARK    6  A    between atoms: O_6  and  C_7
REMARK                            x       y       z     vdW  Elec       q    Type
REMARK                         _______ _______ _______ _____ _____    ______ ____
ROOT
ATOM      1  O   UNL     1       1.908   5.253  -4.560  0.00  0.00    -0.474 OA
ENDROOT
BRANCH   1   2
ATOM      2  C   UNL     1       3.078   5.846  -4.145  0.00  0.00    +0.139 A 
ATOM      3  C   UNL     1       3.149   6.401  -2.880  0.00  0.00    +0.034 A 
ATOM      4  C   UNL     1       4.281   7.130  -2.535  0.00  0.00    +0.003 A 
ATOM      5  C   UNL     1       4.658   7.234  -1.203  0.00  0.00    +0.000 A 
ATOM      6  C   UNL     1       3.783   6.682  -0.274  0.00  0.00    +0.000 A 
ATOM      7  C   UNL     1       2.439   6.627  -0.617  0.00  0.00    +0.000 A 
ATOM      8  C   UNL     1       5.176   7.583  -3.485  0.00  0.00    +0.000 A 
ATOM      9  C   UNL     1       4.953   7.251  -4.797  0.00  0.00    +0.003 A 
ATOM     10  C   UNL     1       2.152   6.296  -1.939  0.00  0.00    +0.003 A 
ATOM     11  C   UNL     1       3.951   6.370  -5.076  0.00  0.00    +0.037 A 
ENDBRANCH   1   2
BRANCH   1  12
ATOM     12  C   UNL     1       1.533   5.554  -6.056  0.00  0.00    +0.195 C 
BRANCH  12  13
ATOM     13  C   UNL     1      -0.079   5.403  -5.734  0.00  0.00    +0.047 A 
ATOM     14  S   UNL     1      -0.692   6.791  -4.900  0.00  0.00    -0.087 S 
ATOM     15  C   UNL     1      -2.324   6.678  -5.424  0.00  0.00    +0.035 A 
ATOM     16  C   UNL     1      -2.219   5.548  -6.229  0.00  0.00    +0.007 A 
ATOM     17  C   UNL     1      -0.972   5.470  -6.802  0.00  0.00    +0.006 A 
ENDBRANCH  12  13
BRANCH  12  18
ATOM     18  C   UNL     1       1.708   3.925  -6.443  0.00  0.00    +0.068 C 
BRANCH  18  19
ATOM     19  C   UNL     1       2.498   3.961  -7.742  0.00  0.00    +0.093 C 
BRANCH  19  21
ATOM     20  C   UNL     1       2.124   5.187  -9.775  0.00  0.00    +0.107 C 
ATOM     21  N   UNL     1       2.366   5.279  -8.352  0.00  0.00    -0.216 NA
ENDBRANCH  19  21
ENDBRANCH  18  19
ENDBRANCH  12  18
ENDBRANCH   1  12
TORSDOF 6
ENDMDL
MODEL 8
REMARK VINA RESULT:      -6.6      2.252      4.789
REMARK  Name = 
REMARK  6 active torsions:
REMARK  status: ('A' for Active; 'I' for Inactive)
REMARK    1  A    between atoms: N_2  and  C_3
REMARK    2  A    between atoms: C_3  and  C_4
REMARK    3  A    between atoms: C_4  and  C_5
REMARK    4  A    between atoms: C_5  and  O_6
REMARK    5  A    between atoms: C_5  and  C_17
REMARK    6  A    between atoms: O_6  and  C_7
REMARK                            x       y       z     vdW  Elec       q    Type
REMARK                         _______ _______ _______ _____ _____    ______ ____
ROOT
ATOM      1  O   UNL     1       3.841   6.140 -10.175  0.00  0.00    -0.474 OA
ENDROOT
BRANCH   1   2
ATOM      2  C   UNL     1       3.360   6.290 -11.455  0.00  0.00    +0.139 A 
ATOM      3  C   UNL     1       1.999   6.437 -11.658  0.00  0.00    +0.034 A 
ATOM      4  C   UNL     1       1.516   6.432 -12.961  0.00  0.00    +0.003 A 
ATOM      5  C   UNL     1       0.331   7.088 -13.262  0.00  0.00    +0.000 A 
ATOM      6  C   UNL     1      -0.366   7.619 -12.183  0.00  0.00    +0.000 A 
ATOM      7  C   UNL     1      -0.205   6.999 -10.952  0.00  0.00    +0.000 A 
ATOM      8  C   UNL     1       2.278   5.978 -14.021  0.00  0.00    +0.000 A 
ATOM      9  C   UNL     1       3.564   5.574 -13.770  0.00  0.00    +0.003 A 
ATOM     10  C   UNL     1       1.081   6.565 -10.642  0.00  0.00    +0.003 A 
ATOM     11  C   UNL     1       4.071   5.781 -12.521  0.00  0.00    +0.037 A 
ENDBRANCH   1   2
BRANCH   1  12
ATOM     12  C   UNL     1       4.731   4.860  -9.971  0.00  0.00    +0.195 C 
BRANCH  12  13
ATOM     13  C   UNL     1       3.982   4.507  -8.543  0.00  0.00    +0.047 A 
ATOM     14  S   UNL     1       3.498   5.943  -7.708  0.00  0.00    -0.087 S 
ATOM     15  C   UNL     1       2.185   5.271  -6.827  0.00  0.00    +0.035 A 
ATOM     16  C   UNL     1       2.251   3.964  -7.297  0.00  0.00    +0.007 A 
ATOM     17  C   UNL     1       2.713   3.932  -8.592  0.00  0.00    +0.006 A 
ENDBRANCH  12  13
BRANCH  12  18
ATOM     18  C   UNL     1       5.923   5.789  -9.230  0.00  0.00    +0.068 C 
BRANCH  18  19
ATOM     19  C   UNL     1       7.044   5.797 -10.257  0.00  0.00    +0.093 C 
BRANCH  19  21
ATOM     20  C   UNL     1       6.694   7.958 -11.247  0.00  0.00    +0.107 C 
ATOM     21  N   UNL     1       7.554   7.155 -10.406  0.00  0.00    -0.216 NA
ENDBRANCH  19  21
ENDBRANCH  18  19
ENDBRANCH  12  18
ENDBRANCH   1  12
TORSDOF 6
ENDMDL
MODEL 9
REMARK VINA RESULT:      -6.6      4.326      8.401
REMARK  Name = 
REMARK  6 active torsions:
REMARK  status: ('A' for Active; 'I' for Inactive)
REMARK    1  A    between atoms: N_2  and  C_3
REMARK    2  A    between atoms: C_3  and  C_4
REMARK    3  A    between atoms: C_4  and  C_5
REMARK    4  A    between atoms: C_5  and  O_6
REMARK    5  A    between atoms: C_5  and  C_17
REMARK    6  A    between atoms: O_6  and  C_7
REMARK                            x       y       z     vdW  Elec       q    Type
REMARK                         _______ _______ _______ _____ _____    ______ ____
ROOT
ATOM      1  O   UNL     1       2.004   5.505  -5.098  0.00  0.00    -0.474 OA
ENDROOT
BRANCH   1   2
ATOM      2  C   UNL     1       0.932   5.380  -4.245  0.00  0.00    +0.139 A 
ATOM      3  C   UNL     1      -0.344   5.640  -4.712  0.00  0.00    +0.034 A 
ATOM      4  C   UNL     1      -1.395   5.660  -3.803  0.00  0.00    +0.003 A 
ATOM      5  C   UNL     1      -2.685   5.373  -4.229  0.00  0.00    +0.000 A 
ATOM      6  C   UNL     1      -2.852   5.196  -5.597  0.00  0.00    +0.000 A 
ATOM      7  C   UNL     1      -1.970   5.859  -6.440  0.00  0.00    +0.000 A 
ATOM      8  C   UNL     1      -1.181   5.746  -2.441  0.00  0.00    +0.000 A 
ATOM      9  C   UNL     1       0.113   5.759  -1.986  0.00  0.00    +0.003 A 
ATOM     10  C   UNL     1      -0.640   5.905  -6.029  0.00  0.00    +0.003 A 
ATOM     11  C   UNL     1       1.112   5.535  -2.886  0.00  0.00    +0.037 A 
ENDBRANCH   1   2
BRANCH   1  12
ATOM     12  C   UNL     1       2.811   6.842  -4.920  0.00  0.00    +0.195 C 
BRANCH  12  13
ATOM     13  C   UNL     1       3.085   6.950  -6.545  0.00  0.00    +0.047 A 
ATOM     14  S   UNL     1       3.087   5.390  -7.293  0.00  0.00    -0.087 S 
ATOM     15  C   UNL     1       2.607   5.884  -8.867  0.00  0.00    +0.035 A 
ATOM     16  C   UNL     1       2.476   7.250  -8.638  0.00  0.00    +0.007 A 
ATOM     17  C   UNL     1       2.081   7.493  -7.344  0.00  0.00    +0.006 A 
ENDBRANCH  12  13
BRANCH  12  18
ATOM     18  C   UNL     1       4.223   5.968  -4.641  0.00  0.00    +0.068 C 
BRANCH  18  19
ATOM     19  C   UNL     1       5.071   6.932  -3.826  0.00  0.00    +0.093 C 
BRANCH  19  21
ATOM     20  C   UNL     1       4.350   7.696  -1.664  0.00  0.00    +0.107 C 
ATOM     21  N   UNL     1       4.199   7.844  -3.095  0.00  0.00    -0.216 NA
ENDBRANCH  19  21
ENDBRANCH  18  19
ENDBRANCH  12  18
ENDBRANCH   1  12
TORSDOF 6
ENDMDL
