MODEL 1
REMARK VINA RESULT:      -6.9      0.000      0.000
REMARK  Name = 
REMARK  8 active torsions:
REMARK  status: ('A' for Active; 'I' for Inactive)
REMARK    1  A    between atoms: C_2  and  C_3
REMARK    2  A    between atoms: C_2  and  N_10
REMARK    3  A    between atoms: C_3  and  C_4
REMARK    4  A    between atoms: C_11  and  C_13
REMARK    5  A    between atoms: C_13  and  C_15
REMARK    6  A    between atoms: C_15  and  C_16
REMARK    7  A    between atoms: C_16  and  C_17
REMARK    8  A    between atoms: C_17  and  C_18
REMARK                            x       y       z     vdW  Elec       q    Type
REMARK                         _______ _______ _______ _____ _____    ______ ____
ROOT
ATOM      1  N   UNL     1       3.579   6.180  -8.307  0.00  0.00    -0.206 NA
ATOM      2  C   UNL     1       3.998   5.065  -9.019  0.00  0.00    +0.259 C 
ATOM      3  O   UNL     1       3.610   3.888  -8.900  0.00  0.00    -0.272 OA
ENDROOT
BRANCH   2   4
ATOM      4  C   UNL     1       4.415   5.272 -10.592  0.00  0.00    +0.169 C 
ATOM      5  N   UNL     1       3.212   6.301 -10.872  0.00  0.00    -0.123 NA
BRANCH   4   6
ATOM      6  C   UNL     1       5.462   6.529 -10.222  0.00  0.00    +0.028 C 
BRANCH   6   7
ATOM      7  C   UNL     1       6.835   5.907 -10.334  0.00  0.00    +0.004 C 
BRANCH   7   8
ATOM      8  C   UNL     1       7.740   6.679 -11.272  0.00  0.00    +0.021 C 
BRANCH   8   9
ATOM      9  C   UNL     1       8.542   5.781 -12.179  0.00  0.00    +0.109 C 
ATOM     10  N   UNL     1       7.742   4.627 -12.573  0.00  0.00    -0.131 NA
ENDBRANCH   8   9
ENDBRANCH   7   8
ENDBRANCH   6   7
ENDBRANCH   4   6
ENDBRANCH   2   4
BRANCH   1  12
ATOM     11  C   UNL     1       3.740   6.439  -5.980  0.00  0.00    +0.024 C 
ATOM     12  C   UNL     1       2.740   5.644  -7.054  0.00  0.00    +0.100 C 
BRANCH  12  13
ATOM     13  C   UNL     1       1.699   6.947  -7.118  0.00  0.00    +0.048 C 
BRANCH  13  14
ATOM     14  C   UNL     1       0.538   6.292  -6.429  0.00  0.00    -0.020 A 
ATOM     15  C   UNL     1      -0.301   5.413  -7.105  0.00  0.00    -0.004 A 
ATOM     16  C   UNL     1      -1.602   5.167  -6.680  0.00  0.00    -0.000 A 
ATOM     17  C   UNL     1      -2.213   6.227  -6.017  0.00  0.00    -0.000 A 
ATOM     18  C   UNL     1      -1.401   6.818  -5.055  0.00  0.00    -0.000 A 
ATOM     19  C   UNL     1      -0.077   7.009  -5.408  0.00  0.00    -0.004 A 
ENDBRANCH  13  14
ENDBRANCH  12  13
ENDBRANCH   1  12
TORSDOF 8
ENDMDL
MODEL 2
REMARK VINA RESULT:      -6.8      2.571      8.118
REMARK  Name = 
REMARK  8 active torsions:
REMARK  status: ('A' for Active; 'I' for Inactive)
REMARK    1  A    between atoms: C_2  and  C_3
REMARK    2  A    between atoms: C_2  and  N_10
REMARK    3  A    between atoms: C_3  and  C_4
REMARK    4  A    between atoms: C_11  and  C_13
REMARK    5  A    between atoms: C_13  and  C_15
REMARK    6  A    between atoms: C_15  and  C_16
REMARK    7  A    between atoms: C_16  and  C_17
REMARK    8  A    between atoms: C_17  and  C_18
REMARK                            x       y       z     vdW  Elec       q    Type
REMARK                         _______ _______ _______ _____ _____    ______ ____
ROOT
ATOM      1  N   UNL     1       1.711   5.722  -8.087  0.00  0.00    -0.206 NA
ATOM      2  C   UNL     1       1.424   4.733  -7.156  0.00  0.00    +0.259 C 
ATOM      3  O   UNL     1       2.132   3.763  -6.824  0.00  0.00    -0.272 OA
ENDROOT
BRANCH   2   4
ATOM      4  C   UNL     1       0.542   5.151  -5.839  0.00  0.00    +0.169 C 
ATOM      5  N   UNL     1       1.197   6.617  -5.750  0.00  0.00    -0.123 NA
BRANCH   4   6
ATOM      6  C   UNL     1      -0.722   5.726  -6.780  0.00  0.00    +0.028 C 
BRANCH   6   7
ATOM      7  C   UNL     1      -1.960   5.339  -6.005  0.00  0.00    +0.004 C 
BRANCH   7   8
ATOM      8  C   UNL     1      -1.937   5.866  -4.585  0.00  0.00    +0.021 C 
BRANCH   8   9
ATOM      9  C   UNL     1      -3.048   5.304  -3.736  0.00  0.00    +0.109 C 
ATOM     10  N   UNL     1      -2.515   4.835  -2.462  0.00  0.00    -0.131 NA
ENDBRANCH   8   9
ENDBRANCH   7   8
ENDBRANCH   6   7
ENDBRANCH   4   6
ENDBRANCH   2   4
BRANCH   1  12
ATOM     11  C   UNL     1       2.125   5.282 -10.355  0.00  0.00    +0.024 C 
ATOM     12  C   UNL     1       2.979   5.221  -8.923  0.00  0.00    +0.100 C 
BRANCH  12  13
ATOM     13  C   UNL     1       3.531   6.783  -9.133  0.00  0.00    +0.048 C 
BRANCH  13  14
ATOM     14  C   UNL     1       4.785   6.438  -9.883  0.00  0.00    -0.020 A 
ATOM     15  C   UNL     1       5.799   5.692  -9.290  0.00  0.00    -0.004 A 
ATOM     16  C   UNL     1       7.113   5.752  -9.741  0.00  0.00    -0.000 A 
ATOM     17  C   UNL     1       7.483   6.967 -10.310  0.00  0.00    -0.000 A 
ATOM     18  C   UNL     1       6.547   7.462 -11.213  0.00  0.00    -0.000 A 
ATOM     19  C   UNL     1       5.220   7.349 -10.838  0.00  0.00    -0.004 A 
ENDBRANCH  13  14
ENDBRANCH  12  13
ENDBRANCH   1  12
TORSDOF 8
ENDMDL
MODEL 3
REMARK VINA RESULT:      -6.6      3.979      6.510
REMARK  Name = 
REMARK  8 active torsions:
REMARK  status: ('A' for Active; 'I' for Inactive)
REMARK    1  A    between atoms: C_2  and  C_3
REMARK    2  A    between atoms: C_2  and  N_10
REMARK    3  A    between atoms: C_3  and  C_4
REMARK    4  A    between atoms: C_11  and  C_13
REMARK    5  A    between atoms: C_13  and  C_15
REMARK    6  A    between atoms: C_15  and  C_16
REMARK    7  A    between atoms: C_16  and  C_17
REMARK    8  A    between atoms: C_17  and  C_18
REMARK                            x       y       z     vdW  Elec       q    Type
REMARK                         _______ _______ _______ _____ _____    ______ ____
ROOT
ATOM      1  N   UNL     1       3.230   5.109  -5.836  0.00  0.00    -0.206 NA
ATOM      2  C   UNL     1       3.801   6.322  -5.477  0.00  0.00    +0.259 C 
ATOM      3  O   UNL     1       3.398   7.470  -5.746  0.00  0.00    -0.272 OA
ENDROOT
BRANCH   2   4
ATOM      4  C   UNL     1       4.563   6.413  -4.028  0.00  0.00    +0.169 C 
ATOM      5  N   UNL     1       5.195   7.857  -4.347  0.00  0.00    -0.123 NA
BRANCH   4   6
ATOM      6  C   UNL     1       3.228   7.112  -3.291  0.00  0.00    +0.028 C 
BRANCH   6   7
ATOM      7  C   UNL     1       2.775   6.070  -2.294  0.00  0.00    +0.004 C 
BRANCH   7   8
ATOM      8  C   UNL     1       1.322   6.243  -1.903  0.00  0.00    +0.021 C 
BRANCH   8   9
ATOM      9  C   UNL     1       0.636   4.933  -1.613  0.00  0.00    +0.109 C 
ATOM     10  N   UNL     1      -0.780   5.026  -1.948  0.00  0.00    -0.131 NA
ENDBRANCH   8   9
ENDBRANCH   7   8
ENDBRANCH   6   7
ENDBRANCH   4   6
ENDBRANCH   2   4
BRANCH   1  12
ATOM     11  C   UNL     1       2.517   4.038  -7.799  0.00  0.00    +0.024 C 
ATOM     12  C   UNL     1       2.130   5.424  -6.954  0.00  0.00    +0.100 C 
BRANCH  12  13
ATOM     13  C   UNL     1       0.942   4.624  -6.096  0.00  0.00    +0.048 C 
BRANCH  13  14
ATOM     14  C   UNL     1      -0.079   5.724  -6.121  0.00  0.00    -0.020 A 
ATOM     15  C   UNL     1      -0.043   6.763  -5.197  0.00  0.00    -0.004 A 
ATOM     16  C   UNL     1      -1.177   7.504  -4.883  0.00  0.00    -0.000 A 
ATOM     17  C   UNL     1      -2.380   6.814  -5.000  0.00  0.00    -0.000 A 
ATOM     18  C   UNL     1      -2.485   6.084  -6.180  0.00  0.00    -0.000 A 
ATOM     19  C   UNL     1      -1.351   5.394  -6.572  0.00  0.00    -0.004 A 
ENDBRANCH  13  14
ENDBRANCH  12  13
ENDBRANCH   1  12
TORSDOF 8
ENDMDL
MODEL 4
REMARK VINA RESULT:      -6.5      5.149      7.130
REMARK  Name = 
REMARK  8 active torsions:
REMARK  status: ('A' for Active; 'I' for Inactive)
REMARK    1  A    between atoms: C_2  and  C_3
REMARK    2  A    between atoms: C_2  and  N_10
REMARK    3  A    between atoms: C_3  and  C_4
REMARK    4  A    between atoms: C_11  and  C_13
REMARK    5  A    between atoms: C_13  and  C_15
REMARK    6  A    between atoms: C_15  and  C_16
REMARK    7  A    between atoms: C_16  and  C_17
REMARK    8  A    between atoms: C_17  and  C_18
REMARK                            x       y       z     vdW  Elec       q    Type
REMARK                         _______ _______ _______ _____ _____    ______ ____
ROOT
ATOM      1  N   UNL     1      -1.124   6.665  -1.779  0.00  0.00    -0.206 NA
ATOM      2  C   UNL     1      -0.181   5.673  -1.548  0.00  0.00    +0.259 C 
ATOM      3  O   UNL     1       0.086   4.687  -2.261  0.00  0.00    -0.272 OA
ENDROOT
BRANCH   2   4
ATOM      4  C   UNL     1       1.206   6.096  -0.782  0.00  0.00    +0.169 C 
ATOM      5  N   UNL     1       1.777   4.593  -0.789  0.00  0.00    -0.123 NA
BRANCH   4   6
ATOM      6  C   UNL     1       1.981   6.443  -2.229  0.00  0.00    +0.028 C 
BRANCH   6   7
ATOM      7  C   UNL     1       3.408   6.004  -1.992  0.00  0.00    +0.004 C 
BRANCH   7   8
ATOM      8  C   UNL     1       4.251   6.093  -3.247  0.00  0.00    +0.021 C 
BRANCH   8   9
ATOM      9  C   UNL     1       4.256   7.474  -3.850  0.00  0.00    +0.109 C 
ATOM     10  N   UNL     1       3.850   7.410  -5.249  0.00  0.00    -0.131 NA
ENDBRANCH   8   9
ENDBRANCH   7   8
ENDBRANCH   6   7
ENDBRANCH   4   6
ENDBRANCH   2   4
BRANCH   1  12
ATOM     11  C   UNL     1      -3.442   6.594  -2.140  0.00  0.00    +0.024 C 
ATOM     12  C   UNL     1      -2.063   6.149  -2.967  0.00  0.00    +0.100 C 
BRANCH  12  13
ATOM     13  C   UNL     1      -1.996   7.626  -3.742  0.00  0.00    +0.048 C 
BRANCH  13  14
ATOM     14  C   UNL     1      -1.503   7.120  -5.066  0.00  0.00    -0.020 A 
ATOM     15  C   UNL     1      -2.226   6.182  -5.795  0.00  0.00    -0.004 A 
ATOM     16  C   UNL     1      -1.620   5.362  -6.739  0.00  0.00    -0.000 A 
ATOM     17  C   UNL     1      -0.286   5.059  -6.484  0.00  0.00    -0.000 A 
ATOM     18  C   UNL     1       0.472   6.168  -6.121  0.00  0.00    -0.000 A 
ATOM     19  C   UNL     1      -0.126   7.055  -5.244  0.00  0.00    -0.004 A 
ENDBRANCH  13  14
ENDBRANCH  12  13
ENDBRANCH   1  12
TORSDOF 8
ENDMDL
MODEL 5
REMARK VINA RESULT:      -6.5      3.441      7.481
REMARK  Name = 
REMARK  8 active torsions:
REMARK  status: ('A' for Active; 'I' for Inactive)
REMARK    1  A    between atoms: C_2  and  C_3
REMARK    2  A    between atoms: C_2  and  N_10
REMARK    3  A    between atoms: C_3  and  C_4
REMARK    4  A    between atoms: C_11  and  C_13
REMARK    5  A    between atoms: C_13  and  C_15
REMARK    6  A    between atoms: C_15  and  C_16
REMARK    7  A    between atoms: C_16  and  C_17
REMARK    8  A    between atoms: C_17  and  C_18
REMARK                            x       y       z     vdW  Elec       q    Type
REMARK                         _______ _______ _______ _____ _____    ______ ____
ROOT
ATOM      1  N   UNL     1       1.673   5.292  -7.633  0.00  0.00    -0.206 NA
ATOM      2  C   UNL     1       0.728   5.104  -6.634  0.00  0.00    +0.259 C 
ATOM      3  O   UNL     1       0.900   4.638  -5.491  0.00  0.00    -0.272 OA
ENDROOT
BRANCH   2   4
ATOM      4  C   UNL     1      -0.500   6.185  -6.526  0.00  0.00    +0.169 C 
ATOM      5  N   UNL     1      -1.631   5.064  -6.753  0.00  0.00    -0.123 NA
BRANCH   4   6
ATOM      6  C   UNL     1      -0.601   6.011  -4.860  0.00  0.00    +0.028 C 
BRANCH   6   7
ATOM      7  C   UNL     1      -1.353   7.242  -4.409  0.00  0.00    +0.004 C 
BRANCH   7   8
ATOM      8  C   UNL     1      -2.489   6.907  -3.465  0.00  0.00    +0.021 C 
BRANCH   8   9
ATOM      9  C   UNL     1      -2.769   5.428  -3.392  0.00  0.00    +0.109 C 
ATOM     10  N   UNL     1      -2.614   4.958  -2.020  0.00  0.00    -0.131 NA
ENDBRANCH   8   9
ENDBRANCH   7   8
ENDBRANCH   6   7
ENDBRANCH   4   6
ENDBRANCH   2   4
BRANCH   1  12
ATOM     11  C   UNL     1       3.304   4.041  -8.765  0.00  0.00    +0.024 C 
ATOM     12  C   UNL     1       2.984   4.490  -7.190  0.00  0.00    +0.100 C 
BRANCH  12  13
ATOM     13  C   UNL     1       3.939   5.852  -7.336  0.00  0.00    +0.048 C 
BRANCH  13  14
ATOM     14  C   UNL     1       4.210   6.047  -5.873  0.00  0.00    -0.020 A 
ATOM     15  C   UNL     1       4.431   4.964  -5.029  0.00  0.00    -0.004 A 
ATOM     16  C   UNL     1       4.217   5.049  -3.657  0.00  0.00    -0.000 A 
ATOM     17  C   UNL     1       3.229   5.949  -3.272  0.00  0.00    -0.000 A 
ATOM     18  C   UNL     1       3.325   7.181  -3.910  0.00  0.00    -0.000 A 
ATOM     19  C   UNL     1       3.616   7.146  -5.262  0.00  0.00    -0.004 A 
ENDBRANCH  13  14
ENDBRANCH  12  13
ENDBRANCH   1  12
TORSDOF 8
ENDMDL
MODEL 6
REMARK VINA RESULT:      -6.4      3.060      5.925
REMARK  Name = 
REMARK  8 active torsions:
REMARK  status: ('A' for Active; 'I' for Inactive)
REMARK    1  A    between atoms: C_2  and  C_3
REMARK    2  A    between atoms: C_2  and  N_10
REMARK    3  A    between atoms: C_3  and  C_4
REMARK    4  A    between atoms: C_11  and  C_13
REMARK    5  A    between atoms: C_13  and  C_15
REMARK    6  A    between atoms: C_15  and  C_16
REMARK    7  A    between atoms: C_16  and  C_17
REMARK    8  A    between atoms: C_17  and  C_18
REMARK                            x       y       z     vdW  Elec       q    Type
REMARK                         _______ _______ _______ _____ _____    ______ ____
ROOT
ATOM      1  N   UNL     1       1.897   4.943  -9.799  0.00  0.00    -0.206 NA
ATOM      2  C   UNL     1       0.910   5.888 -10.048  0.00  0.00    +0.259 C 
ATOM      3  O   UNL     1       0.942   7.111  -9.815  0.00  0.00    -0.272 OA
ENDROOT
BRANCH   2   4
ATOM      4  C   UNL     1      -0.033   5.680 -11.373  0.00  0.00    +0.169 C 
ATOM      5  N   UNL     1       0.165   7.198 -11.866  0.00  0.00    -0.123 NA
BRANCH   4   6
ATOM      6  C   UNL     1       1.264   5.163 -12.302  0.00  0.00    +0.028 C 
BRANCH   6   7
ATOM      7  C   UNL     1       1.580   6.351 -13.181  0.00  0.00    +0.004 C 
BRANCH   7   8
ATOM      8  C   UNL     1       2.864   6.162 -13.961  0.00  0.00    +0.021 C 
BRANCH   8   9
ATOM      9  C   UNL     1       3.377   4.745 -13.907  0.00  0.00    +0.109 C 
ATOM     10  N   UNL     1       4.760   4.732 -13.446  0.00  0.00    -0.131 NA
ENDBRANCH   8   9
ENDBRANCH   7   8
ENDBRANCH   6   7
ENDBRANCH   4   6
ENDBRANCH   2   4
BRANCH   1  12
ATOM     11  C   UNL     1       2.771   4.459  -7.676  0.00  0.00    +0.024 C 
ATOM     12  C   UNL     1       2.974   5.637  -8.840  0.00  0.00    +0.100 C 
BRANCH  12  13
ATOM     13  C   UNL     1       4.230   4.791  -9.542  0.00  0.00    +0.048 C 
BRANCH  13  14
ATOM     14  C   UNL     1       5.161   5.955  -9.720  0.00  0.00    -0.020 A 
ATOM     15  C   UNL     1       4.878   6.974 -10.623  0.00  0.00    -0.004 A 
ATOM     16  C   UNL     1       5.878   7.781 -11.155  0.00  0.00    -0.000 A 
ATOM     17  C   UNL     1       7.124   7.172 -11.272  0.00  0.00    -0.000 A 
ATOM     18  C   UNL     1       7.504   6.468 -10.134  0.00  0.00    -0.000 A 
ATOM     19  C   UNL     1       6.517   5.714  -9.525  0.00  0.00    -0.004 A 
ENDBRANCH  13  14
ENDBRANCH  12  13
ENDBRANCH   1  12
TORSDOF 8
ENDMDL
MODEL 7
REMARK VINA RESULT:      -6.4      4.769      7.160
REMARK  Name = 
REMARK  8 active torsions:
REMARK  status: ('A' for Active; 'I' for Inactive)
REMARK    1  A    between atoms: C_2  and  C_3
REMARK    2  A    between atoms: C_2  and  N_10
REMARK    3  A    between atoms: C_3  and  C_4
REMARK    4  A    between atoms: C_11  and  C_13
REMARK    5  A    between atoms: C_13  and  C_15
REMARK    6  A    between atoms: C_15  and  C_16
REMARK    7  A    between atoms: C_16  and  C_17
REMARK    8  A    between atoms: C_17  and  C_18
REMARK                            x       y       z     vdW  Elec       q    Type
REMARK                         _______ _______ _______ _____ _____    ______ ____
ROOT
ATOM      1  N   UNL     1       0.023   6.689  -0.614  0.00  0.00    -0.206 NA
ATOM      2  C   UNL     1       0.759   5.696  -1.245  0.00  0.00    +0.259 C 
ATOM      3  O   UNL     1       0.335   4.704  -1.867  0.00  0.00    -0.272 OA
ENDROOT
BRANCH   2   4
ATOM      4  C   UNL     1       2.182   6.121  -1.942  0.00  0.00    +0.169 C 
ATOM      5  N   UNL     1       2.887   4.724  -1.571  0.00  0.00    -0.123 NA
BRANCH   4   6
ATOM      6  C   UNL     1       1.705   5.533  -3.439  0.00  0.00    +0.028 C 
BRANCH   6   7
ATOM      7  C   UNL     1       1.706   6.754  -4.328  0.00  0.00    +0.004 C 
BRANCH   7   8
ATOM      8  C   UNL     1       2.161   6.437  -5.738  0.00  0.00    +0.021 C 
BRANCH   8   9
ATOM      9  C   UNL     1       1.315   7.110  -6.789  0.00  0.00    +0.109 C 
ATOM     10  N   UNL     1       2.138   8.000  -7.598  0.00  0.00    -0.131 NA
ENDBRANCH   8   9
ENDBRANCH   7   8
ENDBRANCH   6   7
ENDBRANCH   4   6
ENDBRANCH   2   4
BRANCH   1  12
ATOM     11  C   UNL     1      -1.625   6.674   1.057  0.00  0.00    +0.024 C 
ATOM     12  C   UNL     1      -1.486   6.166  -0.526  0.00  0.00    +0.100 C 
BRANCH  12  13
ATOM     13  C   UNL     1      -2.085   7.618  -1.092  0.00  0.00    +0.048 C 
BRANCH  13  14
ATOM     14  C   UNL     1      -2.559   7.117  -2.426  0.00  0.00    -0.020 A 
ATOM     15  C   UNL     1      -2.924   5.787  -2.609  0.00  0.00    -0.004 A 
ATOM     16  C   UNL     1      -2.907   5.189  -3.864  0.00  0.00    -0.000 A 
ATOM     17  C   UNL     1      -1.963   5.704  -4.747  0.00  0.00    -0.000 A 
ATOM     18  C   UNL     1      -1.937   7.095  -4.778  0.00  0.00    -0.000 A 
ATOM     19  C   UNL     1      -2.033   7.734  -3.555  0.00  0.00    -0.004 A 
ENDBRANCH  13  14
ENDBRANCH  12  13
ENDBRANCH   1  12
TORSDOF 8
ENDMDL
MODEL 8
REMARK VINA RESULT:      -6.3      3.805      5.815
REMARK  Name = 
REMARK  8 active torsions:
REMARK  status: ('A' for Active; 'I' for Inactive)
REMARK    1  A    between atoms: C_2  and  C_3
REMARK    2  A    between atoms: C_2  and  N_10
REMARK    3  A    between atoms: C_3  and  C_4
REMARK    4  A    between atoms: C_11  and  C_13
REMARK    5  A    between atoms: C_13  and  C_15
REMARK    6  A    between atoms: C_15  and  C_16
REMARK    7  A    between atoms: C_16  and  C_17
REMARK    8  A    between atoms: C_17  and  C_18
REMARK                            x       y       z     vdW  Elec       q    Type
REMARK                         _______ _______ _______ _____ _____    ______ ____
ROOT
ATOM      1  N   UNL     1       1.993   5.351  -7.093  0.00  0.00    -0.206 NA
ATOM      2  C   UNL     1       2.992   6.273  -6.813  0.00  0.00    +0.259 C 
ATOM      3  O   UNL     1       2.866   7.479  -6.529  0.00  0.00    -0.272 OA
ENDROOT
BRANCH   2   4
ATOM      4  C   UNL     1       4.331   5.738  -6.032  0.00  0.00    +0.169 C 
ATOM      5  N   UNL     1       4.418   7.041  -5.094  0.00  0.00    -0.123 NA
BRANCH   4   6
ATOM      6  C   UNL     1       3.422   4.919  -4.885  0.00  0.00    +0.028 C 
BRANCH   6   7
ATOM      7  C   UNL     1       4.287   4.947  -3.646  0.00  0.00    +0.004 C 
BRANCH   7   8
ATOM      8  C   UNL     1       3.468   5.061  -2.377  0.00  0.00    +0.021 C 
BRANCH   8   9
ATOM      9  C   UNL     1       4.285   4.825  -1.132  0.00  0.00    +0.109 C 
ATOM     10  N   UNL     1       4.017   5.872  -0.154  0.00  0.00    -0.131 NA
ENDBRANCH   8   9
ENDBRANCH   7   8
ENDBRANCH   6   7
ENDBRANCH   4   6
ENDBRANCH   2   4
BRANCH   1  12
ATOM     11  C   UNL     1       0.599   5.755  -8.938  0.00  0.00    +0.024 C 
ATOM     12  C   UNL     1       0.645   6.181  -7.326  0.00  0.00    +0.100 C 
BRANCH  12  13
ATOM     13  C   UNL     1      -0.303   4.873  -6.907  0.00  0.00    +0.048 C 
BRANCH  13  14
ATOM     14  C   UNL     1      -1.092   5.553  -5.826  0.00  0.00    -0.020 A 
ATOM     15  C   UNL     1      -2.281   6.216  -6.108  0.00  0.00    -0.004 A 
ATOM     16  C   UNL     1      -2.775   7.220  -5.282  0.00  0.00    -0.000 A 
ATOM     17  C   UNL     1      -1.806   7.943  -4.593  0.00  0.00    -0.000 A 
ATOM     18  C   UNL     1      -0.837   7.141  -3.999  0.00  0.00    -0.000 A 
ATOM     19  C   UNL     1      -0.375   6.080  -4.758  0.00  0.00    -0.004 A 
ENDBRANCH  13  14
ENDBRANCH  12  13
ENDBRANCH   1  12
TORSDOF 8
ENDMDL
MODEL 9
REMARK VINA RESULT:      -6.3      1.632      2.369
REMARK  Name = 
REMARK  8 active torsions:
REMARK  status: ('A' for Active; 'I' for Inactive)
REMARK    1  A    between atoms: C_2  and  C_3
REMARK    2  A    between atoms: C_2  and  N_10
REMARK    3  A    between atoms: C_3  and  C_4
REMARK    4  A    between atoms: C_11  and  C_13
REMARK    5  A    between atoms: C_13  and  C_15
REMARK    6  A    between atoms: C_15  and  C_16
REMARK    7  A    between atoms: C_16  and  C_17
REMARK    8  A    between atoms: C_17  and  C_18
REMARK                            x       y       z     vdW  Elec       q    Type
REMARK                         _______ _______ _______ _____ _____    ______ ____
ROOT
ATOM      1  N   UNL     1       1.662   5.206  -8.032  0.00  0.00    -0.206 NA
ATOM      2  C   UNL     1       2.669   6.064  -8.452  0.00  0.00    +0.259 C 
ATOM      3  O   UNL     1       2.664   7.309  -8.457  0.00  0.00    -0.272 OA
ENDROOT
BRANCH   2   4
ATOM      4  C   UNL     1       4.223   5.595  -8.219  0.00  0.00    +0.169 C 
ATOM      5  N   UNL     1       4.014   4.197  -8.986  0.00  0.00    -0.123 NA
BRANCH   4   6
ATOM      6  C   UNL     1       4.734   6.342  -9.631  0.00  0.00    +0.028 C 
BRANCH   6   7
ATOM      7  C   UNL     1       6.137   5.818  -9.835  0.00  0.00    +0.004 C 
BRANCH   7   8
ATOM      8  C   UNL     1       6.630   6.032 -11.251  0.00  0.00    +0.021 C 
BRANCH   8   9
ATOM      9  C   UNL     1       7.866   5.229 -11.566  0.00  0.00    +0.109 C 
ATOM     10  N   UNL     1       7.836   4.793 -12.957  0.00  0.00    -0.131 NA
ENDBRANCH   8   9
ENDBRANCH   7   8
ENDBRANCH   6   7
ENDBRANCH   4   6
ENDBRANCH   2   4
BRANCH   1  12
ATOM     11  C   UNL     1      -0.166   5.726  -9.410  0.00  0.00    +0.024 C 
ATOM     12  C   UNL     1       0.339   6.090  -7.862  0.00  0.00    +0.100 C 
BRANCH  12  13
ATOM     13  C   UNL     1      -0.513   4.799  -7.233  0.00  0.00    +0.048 C 
BRANCH  13  14
ATOM     14  C   UNL     1      -1.073   5.511  -6.035  0.00  0.00    -0.020 A 
ATOM     15  C   UNL     1      -2.319   6.127  -6.079  0.00  0.00    -0.004 A 
ATOM     16  C   UNL     1      -2.659   7.157  -5.209  0.00  0.00    -0.000 A 
ATOM     17  C   UNL     1      -1.591   7.941  -4.782  0.00  0.00    -0.000 A 
ATOM     18  C   UNL     1      -0.486   7.196  -4.380  0.00  0.00    -0.000 A 
ATOM     19  C   UNL     1      -0.161   6.111  -5.175  0.00  0.00    -0.004 A 
ENDBRANCH  13  14
ENDBRANCH  12  13
ENDBRANCH   1  12
TORSDOF 8
ENDMDL
