MODEL 1
REMARK VINA RESULT:      -5.6      0.000      0.000
REMARK  Name = 
REMARK  2 active torsions:
REMARK  status: ('A' for Active; 'I' for Inactive)
REMARK    1  A    between atoms: C_2  and  N_4
REMARK    2  A    between atoms: C_7  and  S_8
REMARK                            x       y       z     vdW  Elec       q    Type
REMARK                         _______ _______ _______ _____ _____    ______ ____
ROOT
ATOM      1  N   UNL     1      -2.167   5.341  -4.473  0.00  0.00    -0.154 NA
ATOM      2  C   UNL     1      -0.967   5.763  -4.754  0.00  0.00    +0.186 A 
ATOM      3  N   UNL     1      -0.318   5.646  -5.940  0.00  0.00    -0.227 N 
ATOM      4  C   UNL     1      -1.083   5.389  -7.162  0.00  0.00    +0.156 C 
ATOM      5  N   UNL     1       0.737   6.448  -5.978  0.00  0.00    -0.140 NA
ATOM      6  C   UNL     1       1.571   6.203  -4.938  0.00  0.00    +0.257 A 
ATOM      7  S   UNL     1       0.391   5.946  -3.713  0.00  0.00    -0.011 S 
ENDROOT
BRANCH   6   8
ATOM      8  S   UNL     1       3.242   6.719  -4.740  0.00  0.00    +0.118 S 
ATOM      9  O   UNL     1       3.405   7.627  -3.569  0.00  0.00    -0.148 OA
ATOM     10  O   UNL     1       3.601   7.460  -6.007  0.00  0.00    -0.148 OA
ATOM     11  N   UNL     1       4.306   5.348  -4.661  0.00  0.00    +0.041 NA
ENDBRANCH   6   8
BRANCH   1  13
ATOM     12  C   UNL     1      -3.208   6.871  -2.785  0.00  0.00    +0.097 C 
ATOM     13  C   UNL     1      -2.596   5.566  -3.130  0.00  0.00    +0.248 C 
ATOM     14  O   UNL     1      -2.579   4.646  -2.275  0.00  0.00    -0.273 OA
ENDBRANCH   1  13
TORSDOF 2
ENDMDL
MODEL 2
REMARK VINA RESULT:      -5.5      2.197      2.707
REMARK  Name = 
REMARK  2 active torsions:
REMARK  status: ('A' for Active; 'I' for Inactive)
REMARK    1  A    between atoms: C_2  and  N_4
REMARK    2  A    between atoms: C_7  and  S_8
REMARK                            x       y       z     vdW  Elec       q    Type
REMARK                         _______ _______ _______ _____ _____    ______ ____
ROOT
ATOM      1  N   UNL     1      -1.090   5.410  -1.760  0.00  0.00    -0.154 NA
ATOM      2  C   UNL     1      -0.132   5.502  -2.637  0.00  0.00    +0.186 A 
ATOM      3  N   UNL     1       1.203   5.482  -2.392  0.00  0.00    -0.227 N 
ATOM      4  C   UNL     1       1.700   4.934  -1.129  0.00  0.00    +0.156 C 
ATOM      5  N   UNL     1       1.882   5.279  -3.512  0.00  0.00    -0.140 NA
ATOM      6  C   UNL     1       1.570   6.211  -4.446  0.00  0.00    +0.257 A 
ATOM      7  S   UNL     1      -0.123   6.315  -4.154  0.00  0.00    -0.011 S 
ENDROOT
BRANCH   6   8
ATOM      8  S   UNL     1       2.438   6.601  -5.926  0.00  0.00    +0.118 S 
ATOM      9  O   UNL     1       3.595   7.504  -5.667  0.00  0.00    -0.148 OA
ATOM     10  O   UNL     1       1.441   7.302  -6.820  0.00  0.00    -0.148 OA
ATOM     11  N   UNL     1       2.908   5.155  -6.765  0.00  0.00    +0.041 NA
ENDBRANCH   6   8
BRANCH   1  13
ATOM     12  C   UNL     1      -3.148   6.775  -2.186  0.00  0.00    +0.097 C 
ATOM     13  C   UNL     1      -2.414   5.491  -2.289  0.00  0.00    +0.248 C 
ATOM     14  O   UNL     1      -2.915   4.545  -2.945  0.00  0.00    -0.273 OA
ENDBRANCH   1  13
TORSDOF 2
ENDMDL
MODEL 3
REMARK VINA RESULT:      -5.4      3.662      4.409
REMARK  Name = 
REMARK  2 active torsions:
REMARK  status: ('A' for Active; 'I' for Inactive)
REMARK    1  A    between atoms: C_2  and  N_4
REMARK    2  A    between atoms: C_7  and  S_8
REMARK                            x       y       z     vdW  Elec       q    Type
REMARK                         _______ _______ _______ _____ _____    ______ ____
ROOT
ATOM      1  N   UNL     1      -1.833   6.717  -1.615  0.00  0.00    -0.154 NA
ATOM      2  C   UNL     1      -0.643   6.326  -1.257  0.00  0.00    +0.186 A 
ATOM      3  N   UNL     1       0.157   6.900  -0.323  0.00  0.00    -0.227 N 
ATOM      4  C   UNL     1      -0.426   7.793   0.681  0.00  0.00    +0.156 C 
ATOM      5  N   UNL     1       1.144   6.082   0.015  0.00  0.00    -0.140 NA
ATOM      6  C   UNL     1       1.857   5.705  -1.074  0.00  0.00    +0.257 A 
ATOM      7  S   UNL     1       0.556   5.507  -2.181  0.00  0.00    -0.011 S 
ENDROOT
BRANCH   6   8
ATOM      8  S   UNL     1       3.446   4.949  -1.126  0.00  0.00    +0.118 S 
ATOM      9  O   UNL     1       3.963   4.842  -2.520  0.00  0.00    -0.148 OA
ATOM     10  O   UNL     1       3.266   3.564  -0.547  0.00  0.00    -0.148 OA
ATOM     11  N   UNL     1       4.556   5.773  -0.075  0.00  0.00    +0.041 NA
ENDBRANCH   6   8
BRANCH   1  13
ATOM     12  C   UNL     1      -2.607   6.554  -3.993  0.00  0.00    +0.097 C 
ATOM     13  C   UNL     1      -2.443   5.946  -2.651  0.00  0.00    +0.248 C 
ATOM     14  O   UNL     1      -2.726   4.734  -2.483  0.00  0.00    -0.273 OA
ENDBRANCH   1  13
TORSDOF 2
ENDMDL
MODEL 4
REMARK VINA RESULT:      -5.3      1.938      1.941
REMARK  Name = 
REMARK  2 active torsions:
REMARK  status: ('A' for Active; 'I' for Inactive)
REMARK    1  A    between atoms: C_2  and  N_4
REMARK    2  A    between atoms: C_7  and  S_8
REMARK                            x       y       z     vdW  Elec       q    Type
REMARK                         _______ _______ _______ _____ _____    ______ ____
ROOT
ATOM      1  N   UNL     1      -1.783   5.494  -3.481  0.00  0.00    -0.154 NA
ATOM      2  C   UNL     1      -0.979   5.936  -4.406  0.00  0.00    +0.186 A 
ATOM      3  N   UNL     1      -1.103   5.758  -5.746  0.00  0.00    -0.227 N 
ATOM      4  C   UNL     1      -2.403   5.392  -6.312  0.00  0.00    +0.156 C 
ATOM      5  N   UNL     1      -0.308   6.591  -6.404  0.00  0.00    -0.140 NA
ATOM      6  C   UNL     1       0.981   6.446  -6.009  0.00  0.00    +0.257 A 
ATOM      7  S   UNL     1       0.713   6.236  -4.322  0.00  0.00    -0.011 S 
ENDROOT
BRANCH   6   8
ATOM      8  S   UNL     1       2.435   7.030  -6.808  0.00  0.00    +0.118 S 
ATOM      9  O   UNL     1       2.153   8.201  -7.686  0.00  0.00    -0.148 OA
ATOM     10  O   UNL     1       2.937   5.879  -7.650  0.00  0.00    -0.148 OA
ATOM     11  N   UNL     1       3.686   7.364  -5.650  0.00  0.00    +0.041 NA
ENDBRANCH   6   8
BRANCH   1  13
ATOM     12  C   UNL     1      -1.902   7.044  -1.515  0.00  0.00    +0.097 C 
ATOM     13  C   UNL     1      -1.397   5.798  -2.140  0.00  0.00    +0.248 C 
ATOM     14  O   UNL     1      -0.748   4.978  -1.445  0.00  0.00    -0.273 OA
ENDBRANCH   1  13
TORSDOF 2
ENDMDL
MODEL 5
REMARK VINA RESULT:      -5.3      2.685      5.645
REMARK  Name = 
REMARK  2 active torsions:
REMARK  status: ('A' for Active; 'I' for Inactive)
REMARK    1  A    between atoms: C_2  and  N_4
REMARK    2  A    between atoms: C_7  and  S_8
REMARK                            x       y       z     vdW  Elec       q    Type
REMARK                         _______ _______ _______ _____ _____    ______ ____
ROOT
ATOM      1  N   UNL     1       2.862   6.726  -6.388  0.00  0.00    -0.154 NA
ATOM      2  C   UNL     1       1.853   6.616  -5.572  0.00  0.00    +0.186 A 
ATOM      3  N   UNL     1       1.877   6.123  -4.307  0.00  0.00    -0.227 N 
ATOM      4  C   UNL     1       3.147   6.046  -3.583  0.00  0.00    +0.156 C 
ATOM      5  N   UNL     1       0.766   6.444  -3.659  0.00  0.00    -0.140 NA
ATOM      6  C   UNL     1      -0.330   6.013  -4.330  0.00  0.00    +0.257 A 
ATOM      7  S   UNL     1       0.187   6.374  -5.931  0.00  0.00    -0.011 S 
ENDROOT
BRANCH   6   8
ATOM      8  S   UNL     1      -1.979   5.859  -3.736  0.00  0.00    +0.118 S 
ATOM      9  O   UNL     1      -2.898   5.325  -4.781  0.00  0.00    -0.148 OA
ATOM     10  O   UNL     1      -2.413   7.254  -3.348  0.00  0.00    -0.148 OA
ATOM     11  N   UNL     1      -2.025   4.915  -2.279  0.00  0.00    +0.041 NA
ENDBRANCH   6   8
BRANCH   1  13
ATOM     12  C   UNL     1       2.577   6.339  -8.847  0.00  0.00    +0.097 C 
ATOM     13  C   UNL     1       2.550   7.251  -7.679  0.00  0.00    +0.248 C 
ATOM     14  O   UNL     1       2.134   8.427  -7.823  0.00  0.00    -0.273 OA
ENDBRANCH   1  13
TORSDOF 2
ENDMDL
MODEL 6
REMARK VINA RESULT:      -5.2      7.646      8.905
REMARK  Name = 
REMARK  2 active torsions:
REMARK  status: ('A' for Active; 'I' for Inactive)
REMARK    1  A    between atoms: C_2  and  N_4
REMARK    2  A    between atoms: C_7  and  S_8
REMARK                            x       y       z     vdW  Elec       q    Type
REMARK                         _______ _______ _______ _____ _____    ______ ____
ROOT
ATOM      1  N   UNL     1       1.465   5.726 -12.627  0.00  0.00    -0.154 NA
ATOM      2  C   UNL     1       2.671   5.652 -12.141  0.00  0.00    +0.186 A 
ATOM      3  N   UNL     1       3.084   6.073 -10.918  0.00  0.00    -0.227 N 
ATOM      4  C   UNL     1       2.102   6.282  -9.853  0.00  0.00    +0.156 C 
ATOM      5  N   UNL     1       4.276   5.568 -10.628  0.00  0.00    -0.140 NA
ATOM      6  C   UNL     1       5.183   5.882 -11.585  0.00  0.00    +0.257 A 
ATOM      7  S   UNL     1       4.180   5.684 -12.968  0.00  0.00    -0.011 S 
ENDROOT
BRANCH   6   8
ATOM      8  S   UNL     1       6.937   5.776 -11.497  0.00  0.00    +0.118 S 
ATOM      9  O   UNL     1       7.401   5.401 -10.131  0.00  0.00    -0.148 OA
ATOM     10  O   UNL     1       7.455   7.153 -11.844  0.00  0.00    -0.148 OA
ATOM     11  N   UNL     1       7.554   4.705 -12.717  0.00  0.00    +0.041 NA
ENDBRANCH   6   8
BRANCH   1  13
ATOM     12  C   UNL     1       0.866   3.837 -14.161  0.00  0.00    +0.097 C 
ATOM     13  C   UNL     1       1.312   5.236 -13.960  0.00  0.00    +0.248 C 
ATOM     14  O   UNL     1       1.426   5.997 -14.952  0.00  0.00    -0.273 OA
ENDBRANCH   1  13
TORSDOF 2
ENDMDL
MODEL 7
REMARK VINA RESULT:      -5.2      3.051      3.496
REMARK  Name = 
REMARK  2 active torsions:
REMARK  status: ('A' for Active; 'I' for Inactive)
REMARK    1  A    between atoms: C_2  and  N_4
REMARK    2  A    between atoms: C_7  and  S_8
REMARK                            x       y       z     vdW  Elec       q    Type
REMARK                         _______ _______ _______ _____ _____    ______ ____
ROOT
ATOM      1  N   UNL     1      -0.853   5.350  -3.502  0.00  0.00    -0.154 NA
ATOM      2  C   UNL     1       0.243   5.807  -2.967  0.00  0.00    +0.186 A 
ATOM      3  N   UNL     1       1.510   5.622  -3.420  0.00  0.00    -0.227 N 
ATOM      4  C   UNL     1       1.732   5.225  -4.811  0.00  0.00    +0.156 C 
ATOM      5  N   UNL     1       2.344   6.471  -2.835  0.00  0.00    -0.140 NA
ATOM      6  C   UNL     1       2.286   6.356  -1.485  0.00  0.00    +0.257 A 
ATOM      7  S   UNL     1       0.587   6.146  -1.315  0.00  0.00    -0.011 S 
ENDROOT
BRANCH   6   8
ATOM      8  S   UNL     1       3.424   6.970  -0.292  0.00  0.00    +0.118 S 
ATOM      9  O   UNL     1       4.205   8.126  -0.816  0.00  0.00    -0.148 OA
ATOM     10  O   UNL     1       4.362   5.826   0.016  0.00  0.00    -0.148 OA
ATOM     11  N   UNL     1       2.614   7.347   1.198  0.00  0.00    +0.041 NA
ENDBRANCH   6   8
BRANCH   1  13
ATOM     12  C   UNL     1      -2.624   7.029  -2.933  0.00  0.00    +0.097 C 
ATOM     13  C   UNL     1      -2.055   5.667  -2.798  0.00  0.00    +0.248 C 
ATOM     14  O   UNL     1      -2.698   4.787  -2.175  0.00  0.00    -0.273 OA
ENDBRANCH   1  13
TORSDOF 2
ENDMDL
MODEL 8
REMARK VINA RESULT:      -5.2      6.307      7.130
REMARK  Name = 
REMARK  2 active torsions:
REMARK  status: ('A' for Active; 'I' for Inactive)
REMARK    1  A    between atoms: C_2  and  N_4
REMARK    2  A    between atoms: C_7  and  S_8
REMARK                            x       y       z     vdW  Elec       q    Type
REMARK                         _______ _______ _______ _____ _____    ______ ____
ROOT
ATOM      1  N   UNL     1       0.865   5.165  -9.982  0.00  0.00    -0.154 NA
ATOM      2  C   UNL     1       2.166   5.164 -10.039  0.00  0.00    +0.186 A 
ATOM      3  N   UNL     1       3.026   4.857  -9.035  0.00  0.00    -0.227 N 
ATOM      4  C   UNL     1       2.552   4.085  -7.885  0.00  0.00    +0.156 C 
ATOM      5  N   UNL     1       4.246   4.650  -9.511  0.00  0.00    -0.140 NA
ATOM      6  C   UNL     1       4.681   5.724 -10.216  0.00  0.00    +0.257 A 
ATOM      7  S   UNL     1       3.211   6.123 -11.015  0.00  0.00    -0.011 S 
ENDROOT
BRANCH   6   8
ATOM      8  S   UNL     1       6.324   6.098 -10.723  0.00  0.00    +0.118 S 
ATOM      9  O   UNL     1       6.771   5.221 -11.843  0.00  0.00    -0.148 OA
ATOM     10  O   UNL     1       7.198   5.856  -9.514  0.00  0.00    -0.148 OA
ATOM     11  N   UNL     1       6.483   7.784 -11.107  0.00  0.00    +0.041 NA
ENDBRANCH   6   8
BRANCH   1  13
ATOM     12  C   UNL     1      -0.410   6.911 -11.248  0.00  0.00    +0.097 C 
ATOM     13  C   UNL     1       0.200   5.562 -11.182  0.00  0.00    +0.248 C 
ATOM     14  O   UNL     1       0.233   4.847 -12.214  0.00  0.00    -0.273 OA
ENDBRANCH   1  13
TORSDOF 2
ENDMDL
MODEL 9
REMARK VINA RESULT:      -5.2      5.753      7.104
REMARK  Name = 
REMARK  2 active torsions:
REMARK  status: ('A' for Active; 'I' for Inactive)
REMARK    1  A    between atoms: C_2  and  N_4
REMARK    2  A    between atoms: C_7  and  S_8
REMARK                            x       y       z     vdW  Elec       q    Type
REMARK                         _______ _______ _______ _____ _____    ______ ____
ROOT
ATOM      1  N   UNL     1       1.499   6.494  -9.029  0.00  0.00    -0.154 NA
ATOM      2  C   UNL     1       2.424   6.404  -9.942  0.00  0.00    +0.186 A 
ATOM      3  N   UNL     1       2.339   5.745 -11.126  0.00  0.00    -0.227 N 
ATOM      4  C   UNL     1       1.025   5.409 -11.676  0.00  0.00    +0.156 C 
ATOM      5  N   UNL     1       3.320   6.115 -11.939  0.00  0.00    -0.140 NA
ATOM      6  C   UNL     1       4.530   5.923 -11.358  0.00  0.00    +0.257 A 
ATOM      7  S   UNL     1       4.136   6.428  -9.762  0.00  0.00    -0.011 S 
ENDROOT
BRANCH   6   8
ATOM      8  S   UNL     1       6.113   5.902 -12.126  0.00  0.00    +0.118 S 
ATOM      9  O   UNL     1       7.177   5.443 -11.189  0.00  0.00    -0.148 OA
ATOM     10  O   UNL     1       6.391   7.328 -12.544  0.00  0.00    -0.148 OA
ATOM     11  N   UNL     1       6.078   4.967 -13.589  0.00  0.00    +0.041 NA
ENDBRANCH   6   8
BRANCH   1  13
ATOM     12  C   UNL     1       2.096   6.482  -6.595  0.00  0.00    +0.097 C 
ATOM     13  C   UNL     1       1.866   7.224  -7.858  0.00  0.00    +0.248 C 
ATOM     14  O   UNL     1       2.118   8.453  -7.907  0.00  0.00    -0.273 OA
ENDBRANCH   1  13
TORSDOF 2
ENDMDL
