MODEL 1
REMARK VINA RESULT:      -8.3      0.000      0.000
REMARK  Name = 
REMARK  10 active torsions:
REMARK  status: ('A' for Active; 'I' for Inactive)
REMARK    1  A    between atoms: C_2  and  C_3
REMARK    2  A    between atoms: C_3  and  C_4
REMARK    3  A    between atoms: C_4  and  C_5
REMARK    4  A    between atoms: C_5  and  C_6
REMARK    5  A    between atoms: C_6  and  C_7
REMARK    6  A    between atoms: C_7  and  C_8
REMARK    7  A    between atoms: C_8  and  C_9
REMARK    8  A    between atoms: C_9  and  C_10
REMARK    9  A    between atoms: C_10  and  O_12
REMARK   10  A    between atoms: O_12  and  C_13
REMARK                            x       y       z     vdW  Elec       q    Type
REMARK                         _______ _______ _______ _____ _____    ______ ____
ROOT
ATOM      1  C   UNL     1       2.771   6.424  -3.348  0.00  0.00    +0.169 C 
ATOM      2  C   UNL     1       2.739   5.367  -4.593  0.00  0.00    +0.037 C 
ATOM      3  C   UNL     1       2.947   6.681  -5.518  0.00  0.00    +0.003 C 
ATOM      4  C   UNL     1       3.227   5.710  -6.866  0.00  0.00    +0.001 C 
ATOM      5  C   UNL     1       1.611   5.920  -7.251  0.00  0.00    +0.004 C 
ATOM      6  C   UNL     1       1.100   4.687  -6.358  0.00  0.00    +0.000 C 
ATOM      7  C   UNL     1       1.767   4.937  -8.617  0.00  0.00    +0.019 C 
ATOM      8  C   UNL     1       2.135   6.184  -9.536  0.00  0.00    -0.042 C 
ATOM      9  C   UNL     1       1.300   6.931 -10.106  0.00  0.00    +0.029 C 
ATOM     10  C   UNL     1       0.074   6.363 -10.626  0.00  0.00    +0.173 C 
ATOM     11  C   UNL     1      -0.154   4.932 -10.247  0.00  0.00    +0.069 C 
ATOM     12  O   UNL     1      -0.778   6.939 -11.276  0.00  0.00    -0.291 OA
ATOM     13  C   UNL     1       3.528   6.595  -9.205  0.00  0.00    +0.022 C 
ATOM     14  C   UNL     1       0.150   4.949  -8.796  0.00  0.00    +0.012 C 
ATOM     15  C   UNL     1       3.691   6.962  -7.762  0.00  0.00    +0.004 C 
ATOM     16  C   UNL     1       4.500   6.750  -5.090  0.00  0.00    +0.004 C 
ATOM     17  C   UNL     1       3.881   4.515  -4.574  0.00  0.00    +0.004 C 
ATOM     18  C   UNL     1       1.398   4.964  -4.917  0.00  0.00    +0.003 C 
ATOM     19  C   UNL     1       4.358   6.790  -3.609  0.00  0.00    +0.044 C 
ENDROOT
BRANCH   1  20
ATOM     20  O   UNL     1       3.130   5.310  -2.339  0.00  0.00    -0.452 OA
BRANCH  20  21
ATOM     21  C   UNL     1       2.092   5.255  -1.405  0.00  0.00    +0.317 C 
ATOM     22  O   UNL     1       2.092   4.249  -0.641  0.00  0.00    -0.250 OA
BRANCH  21  23
ATOM     23  C   UNL     1       1.216   6.413  -1.092  0.00  0.00    +0.110 C 
BRANCH  23  24
ATOM     24  C   UNL     1      -0.172   5.903  -0.773  0.00  0.00    +0.012 C 
BRANCH  24  25
ATOM     25  C   UNL     1      -0.873   5.739  -2.109  0.00  0.00    +0.001 C 
BRANCH  25  26
ATOM     26  C   UNL     1      -2.347   5.706  -1.811  0.00  0.00    +0.000 C 
BRANCH  26  27
ATOM     27  C   UNL     1      -3.030   6.653  -2.756  0.00  0.00    +0.000 C 
BRANCH  27  28
ATOM     28  C   UNL     1      -2.004   7.231  -3.693  0.00  0.00    +0.000 C 
BRANCH  28  29
ATOM     29  C   UNL     1      -2.619   7.354  -5.082  0.00  0.00    +0.000 C 
BRANCH  29  31
ATOM     30  C   UNL     1      -2.525   5.499  -6.237  0.00  0.00    +0.000 C 
ATOM     31  C   UNL     1      -2.081   6.246  -5.957  0.00  0.00    +0.000 C 
ENDBRANCH  29  31
ENDBRANCH  28  29
ENDBRANCH  27  28
ENDBRANCH  26  27
ENDBRANCH  25  26
ENDBRANCH  24  25
ENDBRANCH  23  24
ENDBRANCH  21  23
ENDBRANCH  20  21
ENDBRANCH   1  20
TORSDOF 10
ENDMDL
MODEL 2
REMARK VINA RESULT:      -8.2      1.711      2.577
REMARK  Name = 
REMARK  10 active torsions:
REMARK  status: ('A' for Active; 'I' for Inactive)
REMARK    1  A    between atoms: C_2  and  C_3
REMARK    2  A    between atoms: C_3  and  C_4
REMARK    3  A    between atoms: C_4  and  C_5
REMARK    4  A    between atoms: C_5  and  C_6
REMARK    5  A    between atoms: C_6  and  C_7
REMARK    6  A    between atoms: C_7  and  C_8
REMARK    7  A    between atoms: C_8  and  C_9
REMARK    8  A    between atoms: C_9  and  C_10
REMARK    9  A    between atoms: C_10  and  O_12
REMARK   10  A    between atoms: O_12  and  C_13
REMARK                            x       y       z     vdW  Elec       q    Type
REMARK                         _______ _______ _______ _____ _____    ______ ____
ROOT
ATOM      1  C   UNL     1       2.787   7.633  -1.186  0.00  0.00    +0.169 C 
ATOM      2  C   UNL     1       2.492   6.361  -2.169  0.00  0.00    +0.037 C 
ATOM      3  C   UNL     1       3.388   7.176  -3.245  0.00  0.00    +0.003 C 
ATOM      4  C   UNL     1       3.422   5.832  -4.261  0.00  0.00    +0.001 C 
ATOM      5  C   UNL     1       2.136   6.521  -5.082  0.00  0.00    +0.004 C 
ATOM      6  C   UNL     1       1.012   5.883  -4.129  0.00  0.00    +0.000 C 
ATOM      7  C   UNL     1       2.059   5.208  -6.144  0.00  0.00    +0.019 C 
ATOM      8  C   UNL     1       3.066   5.905  -7.161  0.00  0.00    -0.042 C 
ATOM      9  C   UNL     1       2.735   6.719  -8.061  0.00  0.00    +0.029 C 
ATOM     10  C   UNL     1       1.480   6.535  -8.759  0.00  0.00    +0.173 C 
ATOM     11  C   UNL     1       0.600   5.470  -8.181  0.00  0.00    +0.069 C 
ATOM     12  O   UNL     1       1.071   7.182  -9.706  0.00  0.00    -0.291 OA
ATOM     13  C   UNL     1       4.431   5.832  -6.569  0.00  0.00    +0.022 C 
ATOM     14  C   UNL     1       0.655   5.782  -6.733  0.00  0.00    +0.012 C 
ATOM     15  C   UNL     1       4.514   6.503  -5.232  0.00  0.00    +0.004 C 
ATOM     16  C   UNL     1       4.731   6.768  -2.453  0.00  0.00    +0.004 C 
ATOM     17  C   UNL     1       3.135   5.182  -1.690  0.00  0.00    +0.004 C 
ATOM     18  C   UNL     1       1.176   6.424  -2.743  0.00  0.00    +0.003 C 
ATOM     19  C   UNL     1       4.396   7.278  -1.096  0.00  0.00    +0.044 C 
ENDROOT
BRANCH   1  20
ATOM     20  O   UNL     1       2.470   6.803   0.077  0.00  0.00    -0.452 OA
BRANCH  20  21
ATOM     21  C   UNL     1       1.453   7.474   0.762  0.00  0.00    +0.317 C 
ATOM     22  O   UNL     1       1.724   8.649   1.134  0.00  0.00    -0.250 OA
BRANCH  21  23
ATOM     23  C   UNL     1       0.046   6.999   0.801  0.00  0.00    +0.110 C 
BRANCH  23  24
ATOM     24  C   UNL     1      -0.865   8.138   0.402  0.00  0.00    +0.012 C 
BRANCH  24  25
ATOM     25  C   UNL     1      -1.691   7.625  -0.763  0.00  0.00    +0.001 C 
BRANCH  25  26
ATOM     26  C   UNL     1      -1.765   6.131  -0.603  0.00  0.00    +0.000 C 
BRANCH  26  27
ATOM     27  C   UNL     1      -2.376   5.563  -1.852  0.00  0.00    +0.000 C 
BRANCH  27  28
ATOM     28  C   UNL     1      -2.911   6.693  -2.691  0.00  0.00    +0.000 C 
BRANCH  28  29
ATOM     29  C   UNL     1      -2.701   6.356  -4.162  0.00  0.00    +0.000 C 
BRANCH  29  31
ATOM     30  C   UNL     1      -1.812   8.326  -4.499  0.00  0.00    +0.000 C 
ATOM     31  C   UNL     1      -2.179   7.581  -4.877  0.00  0.00    +0.000 C 
ENDBRANCH  29  31
ENDBRANCH  28  29
ENDBRANCH  27  28
ENDBRANCH  26  27
ENDBRANCH  25  26
ENDBRANCH  24  25
ENDBRANCH  23  24
ENDBRANCH  21  23
ENDBRANCH  20  21
ENDBRANCH   1  20
TORSDOF 10
ENDMDL
MODEL 3
REMARK VINA RESULT:      -8.0      3.883      8.846
REMARK  Name = 
REMARK  10 active torsions:
REMARK  status: ('A' for Active; 'I' for Inactive)
REMARK    1  A    between atoms: C_2  and  C_3
REMARK    2  A    between atoms: C_3  and  C_4
REMARK    3  A    between atoms: C_4  and  C_5
REMARK    4  A    between atoms: C_5  and  C_6
REMARK    5  A    between atoms: C_6  and  C_7
REMARK    6  A    between atoms: C_7  and  C_8
REMARK    7  A    between atoms: C_8  and  C_9
REMARK    8  A    between atoms: C_9  and  C_10
REMARK    9  A    between atoms: C_10  and  O_12
REMARK   10  A    between atoms: O_12  and  C_13
REMARK                            x       y       z     vdW  Elec       q    Type
REMARK                         _______ _______ _______ _____ _____    ______ ____
ROOT
ATOM      1  C   UNL     1       3.723   6.733  -9.711  0.00  0.00    +0.169 C 
ATOM      2  C   UNL     1       3.291   5.788  -8.449  0.00  0.00    +0.037 C 
ATOM      3  C   UNL     1       1.791   6.314  -8.763  0.00  0.00    +0.003 C 
ATOM      4  C   UNL     1       1.151   5.182  -7.692  0.00  0.00    +0.001 C 
ATOM      5  C   UNL     1       1.140   6.397  -6.540  0.00  0.00    +0.004 C 
ATOM      6  C   UNL     1       2.648   6.136  -6.056  0.00  0.00    +0.000 C 
ATOM      7  C   UNL     1       0.523   5.342  -5.373  0.00  0.00    +0.019 C 
ATOM      8  C   UNL     1      -0.977   5.710  -5.758  0.00  0.00    -0.042 C 
ATOM      9  C   UNL     1      -1.623   6.683  -5.294  0.00  0.00    +0.029 C 
ATOM     10  C   UNL     1      -1.428   7.073  -3.914  0.00  0.00    +0.173 C 
ATOM     11  C   UNL     1      -0.300   6.368  -3.225  0.00  0.00    +0.069 C 
ATOM     12  O   UNL     1      -2.043   7.928  -3.304  0.00  0.00    -0.291 OA
ATOM     13  C   UNL     1      -1.283   5.054  -7.060  0.00  0.00    +0.022 C 
ATOM     14  C   UNL     1       0.784   6.471  -4.232  0.00  0.00    +0.012 C 
ATOM     15  C   UNL     1      -0.358   5.488  -8.155  0.00  0.00    +0.004 C 
ATOM     16  C   UNL     1       1.705   5.337 -10.043  0.00  0.00    +0.004 C 
ATOM     17  C   UNL     1       3.472   4.408  -8.755  0.00  0.00    +0.004 C 
ATOM     18  C   UNL     1       3.586   6.414  -7.189  0.00  0.00    +0.003 C 
ATOM     19  C   UNL     1       2.913   5.782 -10.788  0.00  0.00    +0.044 C 
ENDROOT
BRANCH   1  20
ATOM     20  O   UNL     1       5.041   5.951  -9.917  0.00  0.00    -0.452 OA
BRANCH  20  21
ATOM     21  C   UNL     1       5.964   6.845 -10.464  0.00  0.00    +0.317 C 
ATOM     22  O   UNL     1       5.486   7.921 -10.919  0.00  0.00    -0.250 OA
BRANCH  21  23
ATOM     23  C   UNL     1       7.432   6.721 -10.270  0.00  0.00    +0.110 C 
BRANCH  23  24
ATOM     24  C   UNL     1       7.888   5.394 -10.832  0.00  0.00    +0.012 C 
BRANCH  24  25
ATOM     25  C   UNL     1       8.966   5.719 -11.850  0.00  0.00    +0.001 C 
BRANCH  25  26
ATOM     26  C   UNL     1       8.251   6.159 -13.098  0.00  0.00    +0.000 C 
BRANCH  26  27
ATOM     27  C   UNL     1       7.219   5.119 -13.429  0.00  0.00    +0.000 C 
BRANCH  27  28
ATOM     28  C   UNL     1       6.077   5.780 -14.153  0.00  0.00    +0.000 C 
BRANCH  28  29
ATOM     29  C   UNL     1       6.409   7.253 -14.358  0.00  0.00    +0.000 C 
BRANCH  29  31
ATOM     30  C   UNL     1       5.680   8.135 -16.222  0.00  0.00    +0.000 C 
ATOM     31  C   UNL     1       6.290   7.583 -15.828  0.00  0.00    +0.000 C 
ENDBRANCH  29  31
ENDBRANCH  28  29
ENDBRANCH  27  28
ENDBRANCH  26  27
ENDBRANCH  25  26
ENDBRANCH  24  25
ENDBRANCH  23  24
ENDBRANCH  21  23
ENDBRANCH  20  21
ENDBRANCH   1  20
TORSDOF 10
ENDMDL
MODEL 4
REMARK VINA RESULT:      -7.9      2.709      8.846
REMARK  Name = 
REMARK  10 active torsions:
REMARK  status: ('A' for Active; 'I' for Inactive)
REMARK    1  A    between atoms: C_2  and  C_3
REMARK    2  A    between atoms: C_3  and  C_4
REMARK    3  A    between atoms: C_4  and  C_5
REMARK    4  A    between atoms: C_5  and  C_6
REMARK    5  A    between atoms: C_6  and  C_7
REMARK    6  A    between atoms: C_7  and  C_8
REMARK    7  A    between atoms: C_8  and  C_9
REMARK    8  A    between atoms: C_9  and  C_10
REMARK    9  A    between atoms: C_10  and  O_12
REMARK   10  A    between atoms: O_12  and  C_13
REMARK                            x       y       z     vdW  Elec       q    Type
REMARK                         _______ _______ _______ _____ _____    ______ ____
ROOT
ATOM      1  C   UNL     1       1.344   6.359  -9.994  0.00  0.00    +0.169 C 
ATOM      2  C   UNL     1       2.265   5.588  -8.885  0.00  0.00    +0.037 C 
ATOM      3  C   UNL     1       1.239   6.231  -7.808  0.00  0.00    +0.003 C 
ATOM      4  C   UNL     1       1.898   5.277  -6.585  0.00  0.00    +0.001 C 
ATOM      5  C   UNL     1       2.855   6.591  -6.186  0.00  0.00    +0.004 C 
ATOM      6  C   UNL     1       4.024   6.226  -7.224  0.00  0.00    +0.000 C 
ATOM      7  C   UNL     1       3.606   5.720  -4.948  0.00  0.00    +0.019 C 
ATOM      8  C   UNL     1       2.524   6.200  -3.883  0.00  0.00    -0.042 C 
ATOM      9  C   UNL     1       2.580   7.274  -3.231  0.00  0.00    +0.029 C 
ATOM     10  C   UNL     1       3.865   7.772  -2.790  0.00  0.00    +0.173 C 
ATOM     11  C   UNL     1       5.041   7.025  -3.340  0.00  0.00    +0.069 C 
ATOM     12  O   UNL     1       4.067   8.739  -2.079  0.00  0.00    -0.291 OA
ATOM     13  C   UNL     1       1.261   5.458  -4.155  0.00  0.00    +0.022 C 
ATOM     14  C   UNL     1       4.690   6.921  -4.777  0.00  0.00    +0.012 C 
ATOM     15  C   UNL     1       0.746   5.690  -5.543  0.00  0.00    +0.004 C 
ATOM     16  C   UNL     1       0.115   5.151  -8.217  0.00  0.00    +0.004 C 
ATOM     17  C   UNL     1       2.133   4.174  -9.002  0.00  0.00    +0.004 C 
ATOM     18  C   UNL     1       3.486   6.297  -8.619  0.00  0.00    +0.003 C 
ATOM     19  C   UNL     1       0.041   5.397  -9.682  0.00  0.00    +0.044 C 
ENDROOT
BRANCH   1  20
ATOM     20  O   UNL     1       1.836   5.431 -11.129  0.00  0.00    -0.452 OA
BRANCH  20  21
ATOM     21  C   UNL     1       2.117   6.246 -12.229  0.00  0.00    +0.317 C 
ATOM     22  O   UNL     1       1.218   7.073 -12.545  0.00  0.00    -0.250 OA
BRANCH  21  23
ATOM     23  C   UNL     1       3.474   6.378 -12.818  0.00  0.00    +0.110 C 
BRANCH  23  24
ATOM     24  C   UNL     1       4.414   5.439 -12.096  0.00  0.00    +0.012 C 
BRANCH  24  25
ATOM     25  C   UNL     1       5.571   5.193 -13.046  0.00  0.00    +0.001 C 
BRANCH  25  26
ATOM     26  C   UNL     1       6.397   6.450 -13.042  0.00  0.00    +0.000 C 
BRANCH  26  27
ATOM     27  C   UNL     1       7.842   6.054 -13.137  0.00  0.00    +0.000 C 
BRANCH  27  28
ATOM     28  C   UNL     1       8.375   5.816 -11.749  0.00  0.00    +0.000 C 
BRANCH  28  29
ATOM     29  C   UNL     1       7.768   6.848 -10.806  0.00  0.00    +0.000 C 
BRANCH  29  31
ATOM     30  C   UNL     1       6.970   5.419  -9.354  0.00  0.00    +0.000 C 
ATOM     31  C   UNL     1       7.454   6.182  -9.486  0.00  0.00    +0.000 C 
ENDBRANCH  29  31
ENDBRANCH  28  29
ENDBRANCH  27  28
ENDBRANCH  26  27
ENDBRANCH  25  26
ENDBRANCH  24  25
ENDBRANCH  23  24
ENDBRANCH  21  23
ENDBRANCH  20  21
ENDBRANCH   1  20
TORSDOF 10
ENDMDL
MODEL 5
REMARK VINA RESULT:      -7.9      2.586      4.212
REMARK  Name = 
REMARK  10 active torsions:
REMARK  status: ('A' for Active; 'I' for Inactive)
REMARK    1  A    between atoms: C_2  and  C_3
REMARK    2  A    between atoms: C_3  and  C_4
REMARK    3  A    between atoms: C_4  and  C_5
REMARK    4  A    between atoms: C_5  and  C_6
REMARK    5  A    between atoms: C_6  and  C_7
REMARK    6  A    between atoms: C_7  and  C_8
REMARK    7  A    between atoms: C_8  and  C_9
REMARK    8  A    between atoms: C_9  and  C_10
REMARK    9  A    between atoms: C_10  and  O_12
REMARK   10  A    between atoms: O_12  and  C_13
REMARK                            x       y       z     vdW  Elec       q    Type
REMARK                         _______ _______ _______ _____ _____    ______ ____
ROOT
ATOM      1  C   UNL     1       1.445   5.036  -6.699  0.00  0.00    +0.169 C 
ATOM      2  C   UNL     1       2.328   6.188  -7.451  0.00  0.00    +0.037 C 
ATOM      3  C   UNL     1       2.110   5.279  -8.774  0.00  0.00    +0.003 C 
ATOM      4  C   UNL     1       2.742   6.506  -9.742  0.00  0.00    +0.001 C 
ATOM      5  C   UNL     1       4.211   5.705  -9.656  0.00  0.00    +0.004 C 
ATOM      6  C   UNL     1       4.673   6.419  -8.294  0.00  0.00    +0.000 C 
ATOM      7  C   UNL     1       4.959   6.893 -10.598  0.00  0.00    +0.019 C 
ATOM      8  C   UNL     1       4.625   6.110 -11.943  0.00  0.00    -0.042 C 
ATOM      9  C   UNL     1       5.331   5.198 -12.441  0.00  0.00    +0.029 C 
ATOM     10  C   UNL     1       6.773   5.278 -12.340  0.00  0.00    +0.173 C 
ATOM     11  C   UNL     1       7.271   6.381 -11.458  0.00  0.00    +0.069 C 
ATOM     12  O   UNL     1       7.583   4.524 -12.847  0.00  0.00    -0.291 OA
ATOM     13  C   UNL     1       3.169   6.276 -12.213  0.00  0.00    +0.022 C 
ATOM     14  C   UNL     1       6.406   6.229 -10.263  0.00  0.00    +0.012 C 
ATOM     15  C   UNL     1       2.315   5.756 -11.098  0.00  0.00    +0.004 C 
ATOM     16  C   UNL     1       0.589   5.798  -8.894  0.00  0.00    +0.004 C 
ATOM     17  C   UNL     1       1.621   7.424  -7.503  0.00  0.00    +0.004 C 
ATOM     18  C   UNL     1       3.733   6.036  -7.193  0.00  0.00    +0.003 C 
ATOM     19  C   UNL     1       0.084   5.432  -7.543  0.00  0.00    +0.044 C 
ENDROOT
BRANCH   1  20
ATOM     20  O   UNL     1       1.080   5.992  -5.541  0.00  0.00    -0.452 OA
BRANCH  20  21
ATOM     21  C   UNL     1       1.511   5.384  -4.359  0.00  0.00    +0.317 C 
ATOM     22  O   UNL     1       2.369   4.468  -4.492  0.00  0.00    -0.250 OA
BRANCH  21  23
ATOM     23  C   UNL     1       1.243   5.946  -3.010  0.00  0.00    +0.110 C 
BRANCH  23  24
ATOM     24  C   UNL     1       0.184   5.105  -2.333  0.00  0.00    +0.012 C 
BRANCH  24  25
ATOM     25  C   UNL     1      -0.201   5.855  -1.071  0.00  0.00    +0.001 C 
BRANCH  25  26
ATOM     26  C   UNL     1      -1.703   5.815  -0.997  0.00  0.00    +0.000 C 
BRANCH  26  27
ATOM     27  C   UNL     1      -2.222   5.436  -2.355  0.00  0.00    +0.000 C 
BRANCH  27  28
ATOM     28  C   UNL     1      -3.103   6.544  -2.867  0.00  0.00    +0.000 C 
BRANCH  28  29
ATOM     29  C   UNL     1      -2.228   7.730  -3.254  0.00  0.00    +0.000 C 
BRANCH  29  31
ATOM     30  C   UNL     1      -2.366   7.144  -5.357  0.00  0.00    +0.000 C 
ATOM     31  C   UNL     1      -1.955   7.675  -4.739  0.00  0.00    +0.000 C 
ENDBRANCH  29  31
ENDBRANCH  28  29
ENDBRANCH  27  28
ENDBRANCH  26  27
ENDBRANCH  25  26
ENDBRANCH  24  25
ENDBRANCH  23  24
ENDBRANCH  21  23
ENDBRANCH  20  21
ENDBRANCH   1  20
TORSDOF 10
ENDMDL
MODEL 6
REMARK VINA RESULT:      -7.6      2.781      8.607
REMARK  Name = 
REMARK  10 active torsions:
REMARK  status: ('A' for Active; 'I' for Inactive)
REMARK    1  A    between atoms: C_2  and  C_3
REMARK    2  A    between atoms: C_3  and  C_4
REMARK    3  A    between atoms: C_4  and  C_5
REMARK    4  A    between atoms: C_5  and  C_6
REMARK    5  A    between atoms: C_6  and  C_7
REMARK    6  A    between atoms: C_7  and  C_8
REMARK    7  A    between atoms: C_8  and  C_9
REMARK    8  A    between atoms: C_9  and  C_10
REMARK    9  A    between atoms: C_10  and  O_12
REMARK   10  A    between atoms: O_12  and  C_13
REMARK                            x       y       z     vdW  Elec       q    Type
REMARK                         _______ _______ _______ _____ _____    ______ ____
ROOT
ATOM      1  C   UNL     1       0.896   6.515  -7.246  0.00  0.00    +0.169 C 
ATOM      2  C   UNL     1       0.888   5.653  -5.857  0.00  0.00    +0.037 C 
ATOM      3  C   UNL     1      -0.584   6.298  -5.643  0.00  0.00    +0.003 C 
ATOM      4  C   UNL     1      -0.867   5.261  -4.345  0.00  0.00    +0.001 C 
ATOM      5  C   UNL     1      -0.375   6.509  -3.344  0.00  0.00    +0.004 C 
ATOM      6  C   UNL     1       1.184   6.133  -3.419  0.00  0.00    +0.000 C 
ATOM      7  C   UNL     1      -0.597   5.550  -1.971  0.00  0.00    +0.019 C 
ATOM      8  C   UNL     1      -2.105   6.035  -1.812  0.00  0.00    -0.042 C 
ATOM      9  C   UNL     1      -2.469   7.075  -1.207  0.00  0.00    +0.029 C 
ATOM     10  C   UNL     1      -1.758   7.491  -0.017  0.00  0.00    +0.173 C 
ATOM     11  C   UNL     1      -0.509   6.713   0.262  0.00  0.00    +0.069 C 
ATOM     12  O   UNL     1      -2.048   8.416   0.719  0.00  0.00    -0.291 OA
ATOM     13  C   UNL     1      -2.909   5.366  -2.874  0.00  0.00    +0.022 C 
ATOM     14  C   UNL     1       0.139   6.689  -1.071  0.00  0.00    +0.012 C 
ATOM     15  C   UNL     1      -2.416   5.682  -4.253  0.00  0.00    +0.004 C 
ATOM     16  C   UNL     1      -1.196   5.291  -6.743  0.00  0.00    +0.004 C 
ATOM     17  C   UNL     1       0.848   4.254  -6.121  0.00  0.00    +0.004 C 
ATOM     18  C   UNL     1       1.663   6.291  -4.829  0.00  0.00    +0.003 C 
ATOM     19  C   UNL     1      -0.314   5.604  -7.899  0.00  0.00    +0.044 C 
ENDROOT
BRANCH   1  20
ATOM     20  O   UNL     1       1.991   5.615  -7.863  0.00  0.00    -0.452 OA
BRANCH  20  21
ATOM     21  C   UNL     1       2.956   6.464  -8.411  0.00  0.00    +0.317 C 
ATOM     22  O   UNL     1       2.785   7.698  -8.205  0.00  0.00    -0.250 OA
BRANCH  21  23
ATOM     23  C   UNL     1       4.260   5.984  -8.936  0.00  0.00    +0.110 C 
BRANCH  23  24
ATOM     24  C   UNL     1       4.022   5.248 -10.235  0.00  0.00    +0.012 C 
BRANCH  24  25
ATOM     25  C   UNL     1       4.046   6.305 -11.324  0.00  0.00    +0.001 C 
BRANCH  25  26
ATOM     26  C   UNL     1       4.374   5.586 -12.604  0.00  0.00    +0.000 C 
BRANCH  26  27
ATOM     27  C   UNL     1       5.864   5.410 -12.665  0.00  0.00    +0.000 C 
BRANCH  27  28
ATOM     28  C   UNL     1       6.524   6.729 -12.361  0.00  0.00    +0.000 C 
BRANCH  28  29
ATOM     29  C   UNL     1       7.882   6.464 -11.723  0.00  0.00    +0.000 C 
BRANCH  29  31
ATOM     30  C   UNL     1       7.724   5.937  -9.606  0.00  0.00    +0.000 C 
ATOM     31  C   UNL     1       7.684   5.644 -10.469  0.00  0.00    +0.000 C 
ENDBRANCH  29  31
ENDBRANCH  28  29
ENDBRANCH  27  28
ENDBRANCH  26  27
ENDBRANCH  25  26
ENDBRANCH  24  25
ENDBRANCH  23  24
ENDBRANCH  21  23
ENDBRANCH  20  21
ENDBRANCH   1  20
TORSDOF 10
ENDMDL
MODEL 7
REMARK VINA RESULT:      -7.6      2.146      4.849
REMARK  Name = 
REMARK  10 active torsions:
REMARK  status: ('A' for Active; 'I' for Inactive)
REMARK    1  A    between atoms: C_2  and  C_3
REMARK    2  A    between atoms: C_3  and  C_4
REMARK    3  A    between atoms: C_4  and  C_5
REMARK    4  A    between atoms: C_5  and  C_6
REMARK    5  A    between atoms: C_6  and  C_7
REMARK    6  A    between atoms: C_7  and  C_8
REMARK    7  A    between atoms: C_8  and  C_9
REMARK    8  A    between atoms: C_9  and  C_10
REMARK    9  A    between atoms: C_10  and  O_12
REMARK   10  A    between atoms: O_12  and  C_13
REMARK                            x       y       z     vdW  Elec       q    Type
REMARK                         _______ _______ _______ _____ _____    ______ ____
ROOT
ATOM      1  C   UNL     1      -1.323   5.782  -2.996  0.00  0.00    +0.169 C 
ATOM      2  C   UNL     1      -0.673   6.729  -4.159  0.00  0.00    +0.037 C 
ATOM      3  C   UNL     1      -0.867   5.432  -5.112  0.00  0.00    +0.003 C 
ATOM      4  C   UNL     1      -0.492   6.355  -6.472  0.00  0.00    +0.001 C 
ATOM      5  C   UNL     1       1.076   5.786  -6.326  0.00  0.00    +0.004 C 
ATOM      6  C   UNL     1       1.541   6.936  -5.307  0.00  0.00    +0.000 C 
ATOM      7  C   UNL     1       1.573   6.692  -7.663  0.00  0.00    +0.019 C 
ATOM      8  C   UNL     1       1.245   5.495  -8.661  0.00  0.00    -0.042 C 
ATOM      9  C   UNL     1       2.031   4.554  -8.942  0.00  0.00    +0.029 C 
ATOM     10  C   UNL     1       3.450   4.818  -9.042  0.00  0.00    +0.173 C 
ATOM     11  C   UNL     1       3.858   6.190  -8.599  0.00  0.00    +0.069 C 
ATOM     12  O   UNL     1       4.314   4.036  -9.392  0.00  0.00    -0.291 OA
ATOM     13  C   UNL     1      -0.236   5.409  -8.792  0.00  0.00    +0.022 C 
ATOM     14  C   UNL     1       3.121   6.328  -7.319  0.00  0.00    +0.012 C 
ATOM     15  C   UNL     1      -0.918   5.175  -7.479  0.00  0.00    +0.004 C 
ATOM     16  C   UNL     1      -2.451   5.720  -5.200  0.00  0.00    +0.004 C 
ATOM     17  C   UNL     1      -1.548   7.802  -4.497  0.00  0.00    +0.004 C 
ATOM     18  C   UNL     1       0.756   6.818  -4.037  0.00  0.00    +0.003 C 
ATOM     19  C   UNL     1      -2.789   5.743  -3.752  0.00  0.00    +0.044 C 
ENDROOT
BRANCH   1  20
ATOM     20  O   UNL     1      -1.724   7.008  -2.145  0.00  0.00    -0.452 OA
BRANCH  20  21
ATOM     21  C   UNL     1      -1.235   6.786  -0.855  0.00  0.00    +0.317 C 
ATOM     22  O   UNL     1      -2.083   6.865   0.077  0.00  0.00    -0.250 OA
BRANCH  21  23
ATOM     23  C   UNL     1       0.101   6.198  -0.581  0.00  0.00    +0.110 C 
BRANCH  23  24
ATOM     24  C   UNL     1       1.005   7.275  -0.025  0.00  0.00    +0.012 C 
BRANCH  24  25
ATOM     25  C   UNL     1       2.417   6.728  -0.121  0.00  0.00    +0.001 C 
BRANCH  25  26
ATOM     26  C   UNL     1       2.370   5.612  -1.128  0.00  0.00    +0.000 C 
BRANCH  26  27
ATOM     27  C   UNL     1       3.625   5.678  -1.950  0.00  0.00    +0.000 C 
BRANCH  27  28
ATOM     28  C   UNL     1       4.276   7.019  -1.738  0.00  0.00    +0.000 C 
BRANCH  28  29
ATOM     29  C   UNL     1       3.944   7.921  -2.921  0.00  0.00    +0.000 C 
BRANCH  29  31
ATOM     30  C   UNL     1       5.322   7.166  -4.444  0.00  0.00    +0.000 C 
ATOM     31  C   UNL     1       5.084   7.869  -3.912  0.00  0.00    +0.000 C 
ENDBRANCH  29  31
ENDBRANCH  28  29
ENDBRANCH  27  28
ENDBRANCH  26  27
ENDBRANCH  25  26
ENDBRANCH  24  25
ENDBRANCH  23  24
ENDBRANCH  21  23
ENDBRANCH  20  21
ENDBRANCH   1  20
TORSDOF 10
ENDMDL
MODEL 8
REMARK VINA RESULT:      -7.5      3.296      8.832
REMARK  Name = 
REMARK  10 active torsions:
REMARK  status: ('A' for Active; 'I' for Inactive)
REMARK    1  A    between atoms: C_2  and  C_3
REMARK    2  A    between atoms: C_3  and  C_4
REMARK    3  A    between atoms: C_4  and  C_5
REMARK    4  A    between atoms: C_5  and  C_6
REMARK    5  A    between atoms: C_6  and  C_7
REMARK    6  A    between atoms: C_7  and  C_8
REMARK    7  A    between atoms: C_8  and  C_9
REMARK    8  A    between atoms: C_9  and  C_10
REMARK    9  A    between atoms: C_10  and  O_12
REMARK   10  A    between atoms: O_12  and  C_13
REMARK                            x       y       z     vdW  Elec       q    Type
REMARK                         _______ _______ _______ _____ _____    ______ ____
ROOT
ATOM      1  C   UNL     1       2.361   6.301  -9.919  0.00  0.00    +0.169 C 
ATOM      2  C   UNL     1       2.065   5.435  -8.565  0.00  0.00    +0.037 C 
ATOM      3  C   UNL     1       0.597   6.116  -8.631  0.00  0.00    +0.003 C 
ATOM      4  C   UNL     1       0.044   5.081  -7.421  0.00  0.00    +0.001 C 
ATOM      5  C   UNL     1       0.366   6.313  -6.333  0.00  0.00    +0.004 C 
ATOM      6  C   UNL     1       1.901   5.897  -6.111  0.00  0.00    +0.000 C 
ATOM      7  C   UNL     1      -0.139   5.354  -5.036  0.00  0.00    +0.019 C 
ATOM      8  C   UNL     1      -1.637   5.877  -5.166  0.00  0.00    -0.042 C 
ATOM      9  C   UNL     1      -2.085   6.924  -4.632  0.00  0.00    +0.029 C 
ATOM     10  C   UNL     1      -1.606   7.317  -3.324  0.00  0.00    +0.173 C 
ATOM     11  C   UNL     1      -0.453   6.506  -2.818  0.00  0.00    +0.069 C 
ATOM     12  O   UNL     1      -2.009   8.245  -2.649  0.00  0.00    -0.291 OA
ATOM     13  C   UNL     1      -2.239   5.234  -6.367  0.00  0.00    +0.022 C 
ATOM     14  C   UNL     1       0.438   6.470  -4.003  0.00  0.00    +0.012 C 
ATOM     15  C   UNL     1      -1.483   5.542  -7.623  0.00  0.00    +0.004 C 
ATOM     16  C   UNL     1       0.182   5.130  -9.837  0.00  0.00    +0.004 C 
ATOM     17  C   UNL     1       2.043   4.038  -8.844  0.00  0.00    +0.004 C 
ATOM     18  C   UNL     1       2.645   6.048  -7.402  0.00  0.00    +0.003 C 
ATOM     19  C   UNL     1       1.277   5.425 -10.800  0.00  0.00    +0.044 C 
ENDROOT
BRANCH   1  20
ATOM     20  O   UNL     1       3.531   5.376 -10.323  0.00  0.00    -0.452 OA
BRANCH  20  21
ATOM     21  C   UNL     1       4.099   5.917 -11.479  0.00  0.00    +0.317 C 
ATOM     22  O   UNL     1       4.540   7.096 -11.376  0.00  0.00    -0.250 OA
BRANCH  21  23
ATOM     23  C   UNL     1       4.458   5.103 -12.668  0.00  0.00    +0.110 C 
BRANCH  23  24
ATOM     24  C   UNL     1       5.050   6.012 -13.722  0.00  0.00    +0.012 C 
BRANCH  24  25
ATOM     25  C   UNL     1       6.404   5.422 -14.071  0.00  0.00    +0.001 C 
BRANCH  25  26
ATOM     26  C   UNL     1       7.413   6.512 -13.835  0.00  0.00    +0.000 C 
BRANCH  26  27
ATOM     27  C   UNL     1       8.402   6.015 -12.820  0.00  0.00    +0.000 C 
BRANCH  27  28
ATOM     28  C   UNL     1       7.940   6.425 -11.447  0.00  0.00    +0.000 C 
BRANCH  28  29
ATOM     29  C   UNL     1       8.061   5.231 -10.509  0.00  0.00    +0.000 C 
BRANCH  29  31
ATOM     30  C   UNL     1       6.556   5.659  -8.980  0.00  0.00    +0.000 C 
ATOM     31  C   UNL     1       7.444   5.588  -9.177  0.00  0.00    +0.000 C 
ENDBRANCH  29  31
ENDBRANCH  28  29
ENDBRANCH  27  28
ENDBRANCH  26  27
ENDBRANCH  25  26
ENDBRANCH  24  25
ENDBRANCH  23  24
ENDBRANCH  21  23
ENDBRANCH  20  21
ENDBRANCH   1  20
TORSDOF 10
ENDMDL
MODEL 9
REMARK VINA RESULT:      -7.4      2.145      8.325
REMARK  Name = 
REMARK  10 active torsions:
REMARK  status: ('A' for Active; 'I' for Inactive)
REMARK    1  A    between atoms: C_2  and  C_3
REMARK    2  A    between atoms: C_3  and  C_4
REMARK    3  A    between atoms: C_4  and  C_5
REMARK    4  A    between atoms: C_5  and  C_6
REMARK    5  A    between atoms: C_6  and  C_7
REMARK    6  A    between atoms: C_7  and  C_8
REMARK    7  A    between atoms: C_8  and  C_9
REMARK    8  A    between atoms: C_9  and  C_10
REMARK    9  A    between atoms: C_10  and  O_12
REMARK   10  A    between atoms: O_12  and  C_13
REMARK                            x       y       z     vdW  Elec       q    Type
REMARK                         _______ _______ _______ _____ _____    ______ ____
ROOT
ATOM      1  C   UNL     1       1.640   5.686  -8.822  0.00  0.00    +0.169 C 
ATOM      2  C   UNL     1       1.709   6.642  -7.499  0.00  0.00    +0.037 C 
ATOM      3  C   UNL     1       2.886   5.637  -7.018  0.00  0.00    +0.003 C 
ATOM      4  C   UNL     1       3.278   6.675  -5.750  0.00  0.00    +0.001 C 
ATOM      5  C   UNL     1       2.313   5.717  -4.774  0.00  0.00    +0.004 C 
ATOM      6  C   UNL     1       0.955   6.504  -5.116  0.00  0.00    +0.000 C 
ATOM      7  C   UNL     1       2.614   6.706  -3.437  0.00  0.00    +0.019 C 
ATOM      8  C   UNL     1       3.880   5.838  -3.015  0.00  0.00    -0.042 C 
ATOM      9  C   UNL     1       3.839   4.801  -2.304  0.00  0.00    +0.029 C 
ATOM     10  C   UNL     1       2.883   4.718  -1.221  0.00  0.00    +0.173 C 
ATOM     11  C   UNL     1       1.888   5.836  -1.186  0.00  0.00    +0.069 C 
ATOM     12  O   UNL     1       2.789   3.825  -0.399  0.00  0.00    -0.291 OA
ATOM     13  C   UNL     1       4.980   6.148  -3.969  0.00  0.00    +0.022 C 
ATOM     14  C   UNL     1       1.464   5.910  -2.605  0.00  0.00    +0.012 C 
ATOM     15  C   UNL     1       4.610   5.850  -5.390  0.00  0.00    +0.004 C 
ATOM     16  C   UNL     1       3.909   6.321  -8.060  0.00  0.00    +0.004 C 
ATOM     17  C   UNL     1       2.189   7.943  -7.828  0.00  0.00    +0.004 C 
ATOM     18  C   UNL     1       0.649   6.349  -6.574  0.00  0.00    +0.003 C 
ATOM     19  C   UNL     1       3.140   6.155  -9.323  0.00  0.00    +0.044 C 
ENDROOT
BRANCH   1  20
ATOM     20  O   UNL     1       0.949   6.790  -9.653  0.00  0.00    -0.452 OA
BRANCH  20  21
ATOM     21  C   UNL     1       0.176   6.148 -10.624  0.00  0.00    +0.317 C 
ATOM     22  O   UNL     1      -0.738   6.843 -11.148  0.00  0.00    -0.250 OA
BRANCH  21  23
ATOM     23  C   UNL     1       0.558   4.853 -11.243  0.00  0.00    +0.110 C 
BRANCH  23  24
ATOM     24  C   UNL     1       0.845   5.080 -12.711  0.00  0.00    +0.012 C 
BRANCH  24  25
ATOM     25  C   UNL     1       2.207   5.746 -12.773  0.00  0.00    +0.001 C 
BRANCH  25  26
ATOM     26  C   UNL     1       2.918   5.145 -13.955  0.00  0.00    +0.000 C 
BRANCH  26  27
ATOM     27  C   UNL     1       4.390   5.383 -13.779  0.00  0.00    +0.000 C 
BRANCH  27  28
ATOM     28  C   UNL     1       4.679   5.589 -12.315  0.00  0.00    +0.000 C 
BRANCH  28  29
ATOM     29  C   UNL     1       6.183   5.748 -12.128  0.00  0.00    +0.000 C 
BRANCH  29  31
ATOM     30  C   UNL     1       6.192   7.773 -11.300  0.00  0.00    +0.000 C 
ATOM     31  C   UNL     1       6.441   6.902 -11.187  0.00  0.00    +0.000 C 
ENDBRANCH  29  31
ENDBRANCH  28  29
ENDBRANCH  27  28
ENDBRANCH  26  27
ENDBRANCH  25  26
ENDBRANCH  24  25
ENDBRANCH  23  24
ENDBRANCH  21  23
ENDBRANCH  20  21
ENDBRANCH   1  20
TORSDOF 10
ENDMDL
