MODEL 1
REMARK VINA RESULT:      -6.8      0.000      0.000
REMARK  Name = 
REMARK  7 active torsions:
REMARK  status: ('A' for Active; 'I' for Inactive)
REMARK    1  A    between atoms: C_2  and  N_3
REMARK    2  A    between atoms: N_3  and  C_4
REMARK    3  A    between atoms: N_6  and  C_7
REMARK    4  A    between atoms: C_7  and  C_8
REMARK    5  A    between atoms: C_8  and  C_9
REMARK    6  A    between atoms: C_9  and  O_10
REMARK    7  A    between atoms: C_17  and  S_18
REMARK                            x       y       z     vdW  Elec       q    Type
REMARK                         _______ _______ _______ _____ _____    ______ ____
ROOT
ATOM      1  C   UNL     1       3.012   6.171  -5.130  0.00  0.00    +0.114 C 
ATOM      2  C   UNL     1       1.417   5.874  -5.173  0.00  0.00    +0.022 A 
ATOM      3  C   UNL     1       0.688   6.509  -6.104  0.00  0.00    +0.150 A 
ATOM      4  S   UNL     1      -0.833   6.706  -5.315  0.00  0.00    -0.048 S 
ATOM      5  C   UNL     1      -0.360   6.229  -3.737  0.00  0.00    +0.155 A 
ATOM      6  S   UNL     1       1.119   6.124  -7.782  0.00  0.00    +0.069 S 
ATOM      7  O   UNL     1       0.102   5.321  -8.482  0.00  0.00    -0.152 OA
ATOM      8  O   UNL     1       1.509   7.386  -8.466  0.00  0.00    -0.152 OA
ATOM      9  N   UNL     1       2.570   5.231  -7.412  0.00  0.00    -0.153 NA
ATOM     10  C   UNL     1       0.847   5.676  -3.965  0.00  0.00    +0.026 A 
ATOM     11  C   UNL     1       3.288   6.197  -6.749  0.00  0.00    +0.118 C 
ENDROOT
BRANCH   5  12
ATOM     12  S   UNL     1      -1.450   5.850  -2.402  0.00  0.00    +0.099 S 
ATOM     13  O   UNL     1      -2.017   7.123  -1.854  0.00  0.00    -0.150 OA
ATOM     14  O   UNL     1      -0.680   5.078  -1.386  0.00  0.00    -0.150 OA
ATOM     15  N   UNL     1      -2.705   4.853  -3.010  0.00  0.00    +0.040 NA
ENDBRANCH   5  12
BRANCH   1  16
ATOM     16  N   UNL     1       3.379   4.638  -5.029  0.00  0.00    -0.214 NA
BRANCH  16  18
ATOM     17  C   UNL     1       4.741   4.913  -3.810  0.00  0.00    +0.020 C 
ATOM     18  C   UNL     1       4.644   4.798  -4.305  0.00  0.00    +0.089 C 
ENDBRANCH  16  18
ENDBRANCH   1  16
BRANCH   9  19
ATOM     19  C   UNL     1       3.041   4.363  -8.368  0.00  0.00    +0.098 C 
BRANCH  19  20
ATOM     20  C   UNL     1       4.217   4.886  -9.139  0.00  0.00    +0.051 C 
BRANCH  20  21
ATOM     21  C   UNL     1       3.937   5.498 -10.425  0.00  0.00    +0.144 C 
BRANCH  21  22
ATOM     22  O   UNL     1       4.119   6.780 -10.684  0.00  0.00    -0.351 OA
ATOM     23  C   UNL     1       5.325   7.320 -10.927  0.00  0.00    +0.174 C 
ENDBRANCH  21  22
ENDBRANCH  20  21
ENDBRANCH  19  20
ENDBRANCH   9  19
TORSDOF 7
ENDMDL
MODEL 2
REMARK VINA RESULT:      -6.7      2.761      7.187
REMARK  Name = 
REMARK  7 active torsions:
REMARK  status: ('A' for Active; 'I' for Inactive)
REMARK    1  A    between atoms: C_2  and  N_3
REMARK    2  A    between atoms: N_3  and  C_4
REMARK    3  A    between atoms: N_6  and  C_7
REMARK    4  A    between atoms: C_7  and  C_8
REMARK    5  A    between atoms: C_8  and  C_9
REMARK    6  A    between atoms: C_9  and  O_10
REMARK    7  A    between atoms: C_17  and  S_18
REMARK                            x       y       z     vdW  Elec       q    Type
REMARK                         _______ _______ _______ _____ _____    ______ ____
ROOT
ATOM      1  C   UNL     1       0.419   6.674  -5.511  0.00  0.00    +0.114 C 
ATOM      2  C   UNL     1       1.844   5.933  -5.736  0.00  0.00    +0.022 A 
ATOM      3  C   UNL     1       2.878   6.322  -4.973  0.00  0.00    +0.150 A 
ATOM      4  S   UNL     1       4.226   6.084  -6.023  0.00  0.00    -0.048 S 
ATOM      5  C   UNL     1       3.362   5.779  -7.473  0.00  0.00    +0.155 A 
ATOM      6  S   UNL     1       2.663   6.058  -3.231  0.00  0.00    +0.069 S 
ATOM      7  O   UNL     1       3.519   4.990  -2.687  0.00  0.00    -0.152 OA
ATOM      8  O   UNL     1       2.776   7.372  -2.543  0.00  0.00    -0.152 OA
ATOM      9  N   UNL     1       0.977   5.622  -3.305  0.00  0.00    -0.153 NA
ATOM     10  C   UNL     1       2.109   5.593  -7.016  0.00  0.00    +0.026 A 
ATOM     11  C   UNL     1       0.455   6.761  -3.871  0.00  0.00    +0.118 C 
ENDROOT
BRANCH   5  12
ATOM     12  S   UNL     1       4.042   5.118  -8.962  0.00  0.00    +0.099 S 
ATOM     13  O   UNL     1       3.468   5.854 -10.133  0.00  0.00    -0.150 OA
ATOM     14  O   UNL     1       3.741   3.659  -8.995  0.00  0.00    -0.150 OA
ATOM     15  N   UNL     1       5.742   5.325  -8.904  0.00  0.00    +0.040 NA
ENDBRANCH   5  12
BRANCH   1  16
ATOM     16  N   UNL     1      -0.380   5.313  -5.483  0.00  0.00    -0.214 NA
BRANCH  16  18
ATOM     17  C   UNL     1      -1.838   5.454  -6.611  0.00  0.00    +0.020 C 
ATOM     18  C   UNL     1      -1.488   5.730  -6.349  0.00  0.00    +0.089 C 
ENDBRANCH  16  18
ENDBRANCH   1  16
BRANCH   9  19
ATOM     19  C   UNL     1       0.458   4.915  -2.247  0.00  0.00    +0.098 C 
BRANCH  19  20
ATOM     20  C   UNL     1      -0.309   5.757  -1.270  0.00  0.00    +0.051 C 
BRANCH  20  21
ATOM     21  C   UNL     1      -1.755   5.639  -1.300  0.00  0.00    +0.144 C 
BRANCH  21  22
ATOM     22  O   UNL     1      -2.415   4.924  -2.193  0.00  0.00    -0.351 OA
ATOM     23  C   UNL     1      -3.224   5.465  -3.120  0.00  0.00    +0.174 C 
ENDBRANCH  21  22
ENDBRANCH  20  21
ENDBRANCH  19  20
ENDBRANCH   9  19
TORSDOF 7
ENDMDL
MODEL 3
REMARK VINA RESULT:      -6.6      2.925      4.385
REMARK  Name = 
REMARK  7 active torsions:
REMARK  status: ('A' for Active; 'I' for Inactive)
REMARK    1  A    between atoms: C_2  and  N_3
REMARK    2  A    between atoms: N_3  and  C_4
REMARK    3  A    between atoms: N_6  and  C_7
REMARK    4  A    between atoms: C_7  and  C_8
REMARK    5  A    between atoms: C_8  and  C_9
REMARK    6  A    between atoms: C_9  and  O_10
REMARK    7  A    between atoms: C_17  and  S_18
REMARK                            x       y       z     vdW  Elec       q    Type
REMARK                         _______ _______ _______ _____ _____    ______ ____
ROOT
ATOM      1  C   UNL     1       0.486   5.459  -9.743  0.00  0.00    +0.114 C 
ATOM      2  C   UNL     1       0.884   5.628  -8.180  0.00  0.00    +0.022 A 
ATOM      3  C   UNL     1       1.792   4.780  -7.671  0.00  0.00    +0.150 A 
ATOM      4  S   UNL     1       1.279   4.625  -6.031  0.00  0.00    -0.048 S 
ATOM      5  C   UNL     1      -0.234   5.421  -6.167  0.00  0.00    +0.155 A 
ATOM      6  S   UNL     1       3.402   4.876  -8.412  0.00  0.00    +0.069 S 
ATOM      7  O   UNL     1       4.424   5.460  -7.527  0.00  0.00    -0.152 OA
ATOM      8  O   UNL     1       3.738   3.540  -8.972  0.00  0.00    -0.152 OA
ATOM      9  N   UNL     1       2.949   5.924  -9.730  0.00  0.00    -0.153 NA
ATOM     10  C   UNL     1      -0.133   6.006  -7.375  0.00  0.00    +0.026 A 
ATOM     11  C   UNL     1       1.987   5.152 -10.335  0.00  0.00    +0.118 C 
ENDROOT
BRANCH   5  12
ATOM     12  S   UNL     1      -1.241   5.964  -4.822  0.00  0.00    +0.099 S 
ATOM     13  O   UNL     1      -0.688   5.416  -3.543  0.00  0.00    -0.150 OA
ATOM     14  O   UNL     1      -2.637   5.515  -5.085  0.00  0.00    -0.150 OA
ATOM     15  N   UNL     1      -1.212   7.677  -4.798  0.00  0.00    +0.040 NA
ENDBRANCH   5  12
BRANCH   1  16
ATOM     16  N   UNL     1       0.621   7.005 -10.031  0.00  0.00    -0.214 NA
BRANCH  16  18
ATOM     17  C   UNL     1      -0.436   7.442 -11.484  0.00  0.00    +0.020 C 
ATOM     18  C   UNL     1      -0.222   7.045 -11.231  0.00  0.00    +0.089 C 
ENDBRANCH  16  18
ENDBRANCH   1  16
BRANCH   9  19
ATOM     19  C   UNL     1       3.952   6.629 -10.351  0.00  0.00    +0.098 C 
BRANCH  19  20
ATOM     20  C   UNL     1       4.485   5.969 -11.588  0.00  0.00    +0.051 C 
BRANCH  20  21
ATOM     21  C   UNL     1       5.928   5.866 -11.704  0.00  0.00    +0.144 C 
BRANCH  21  22
ATOM     22  O   UNL     1       6.541   5.048 -12.541  0.00  0.00    -0.351 OA
ATOM     23  C   UNL     1       7.397   5.465 -13.488  0.00  0.00    +0.174 C 
ENDBRANCH  21  22
ENDBRANCH  20  21
ENDBRANCH  19  20
ENDBRANCH   9  19
TORSDOF 7
ENDMDL
MODEL 4
REMARK VINA RESULT:      -6.5      2.466      7.025
REMARK  Name = 
REMARK  7 active torsions:
REMARK  status: ('A' for Active; 'I' for Inactive)
REMARK    1  A    between atoms: C_2  and  N_3
REMARK    2  A    between atoms: N_3  and  C_4
REMARK    3  A    between atoms: N_6  and  C_7
REMARK    4  A    between atoms: C_7  and  C_8
REMARK    5  A    between atoms: C_8  and  C_9
REMARK    6  A    between atoms: C_9  and  O_10
REMARK    7  A    between atoms: C_17  and  S_18
REMARK                            x       y       z     vdW  Elec       q    Type
REMARK                         _______ _______ _______ _____ _____    ______ ____
ROOT
ATOM      1  C   UNL     1       4.168   5.794  -5.526  0.00  0.00    +0.114 C 
ATOM      2  C   UNL     1       3.708   5.795  -7.081  0.00  0.00    +0.022 A 
ATOM      3  C   UNL     1       2.840   4.850  -7.478  0.00  0.00    +0.150 A 
ATOM      4  S   UNL     1       3.306   4.579  -9.116  0.00  0.00    -0.048 S 
ATOM      5  C   UNL     1       4.769   5.475  -9.110  0.00  0.00    +0.155 A 
ATOM      6  S   UNL     1       1.252   4.915  -6.686  0.00  0.00    +0.069 S 
ATOM      7  O   UNL     1       0.166   5.352  -7.579  0.00  0.00    -0.152 OA
ATOM      8  O   UNL     1       1.021   3.617  -5.997  0.00  0.00    -0.152 OA
ATOM      9  N   UNL     1       1.680   6.104  -5.485  0.00  0.00    -0.153 NA
ATOM     10  C   UNL     1       4.671   6.160  -7.955  0.00  0.00    +0.026 A 
ATOM     11  C   UNL     1       2.710   5.450  -4.851  0.00  0.00    +0.118 C 
ENDROOT
BRANCH   5  12
ATOM     12  S   UNL     1       5.694   5.953 -10.536  0.00  0.00    +0.099 S 
ATOM     13  O   UNL     1       5.247   5.136 -11.708  0.00  0.00    -0.150 OA
ATOM     14  O   UNL     1       7.140   5.772 -10.226  0.00  0.00    -0.150 OA
ATOM     15  N   UNL     1       5.399   7.617 -10.823  0.00  0.00    +0.040 NA
ENDBRANCH   5  12
BRANCH   1  16
ATOM     16  N   UNL     1       3.943   7.349  -5.371  0.00  0.00    -0.214 NA
BRANCH  16  18
ATOM     17  C   UNL     1       5.088   7.776  -3.984  0.00  0.00    +0.020 C 
ATOM     18  C   UNL     1       5.073   7.611  -4.474  0.00  0.00    +0.089 C 
ENDBRANCH  16  18
ENDBRANCH   1  16
BRANCH   9  19
ATOM     19  C   UNL     1       0.655   6.801  -4.890  0.00  0.00    +0.098 C 
BRANCH  19  20
ATOM     20  C   UNL     1       0.219   6.234  -3.571  0.00  0.00    +0.051 C 
BRANCH  20  21
ATOM     21  C   UNL     1      -1.006   5.455  -3.567  0.00  0.00    +0.144 C 
BRANCH  21  22
ATOM     22  O   UNL     1      -1.651   5.107  -2.468  0.00  0.00    -0.351 OA
ATOM     23  C   UNL     1      -1.472   5.714  -1.283  0.00  0.00    +0.174 C 
ENDBRANCH  21  22
ENDBRANCH  20  21
ENDBRANCH  19  20
ENDBRANCH   9  19
TORSDOF 7
ENDMDL
MODEL 5
REMARK VINA RESULT:      -6.5      3.351      7.858
REMARK  Name = 
REMARK  7 active torsions:
REMARK  status: ('A' for Active; 'I' for Inactive)
REMARK    1  A    between atoms: C_2  and  N_3
REMARK    2  A    between atoms: N_3  and  C_4
REMARK    3  A    between atoms: N_6  and  C_7
REMARK    4  A    between atoms: C_7  and  C_8
REMARK    5  A    between atoms: C_8  and  C_9
REMARK    6  A    between atoms: C_9  and  O_10
REMARK    7  A    between atoms: C_17  and  S_18
REMARK                            x       y       z     vdW  Elec       q    Type
REMARK                         _______ _______ _______ _____ _____    ______ ____
ROOT
ATOM      1  C   UNL     1       1.534   6.117  -9.889  0.00  0.00    +0.114 C 
ATOM      2  C   UNL     1       3.118   5.770  -9.933  0.00  0.00    +0.022 A 
ATOM      3  C   UNL     1       3.920   6.404  -9.063  0.00  0.00    +0.150 A 
ATOM      4  S   UNL     1       5.397   6.533  -9.944  0.00  0.00    -0.048 S 
ATOM      5  C   UNL     1       4.817   6.034 -11.479  0.00  0.00    +0.155 A 
ATOM      6  S   UNL     1       3.578   6.072  -7.353  0.00  0.00    +0.069 S 
ATOM      7  O   UNL     1       4.610   5.253  -6.694  0.00  0.00    -0.152 OA
ATOM      8  O   UNL     1       3.268   7.361  -6.680  0.00  0.00    -0.152 OA
ATOM      9  N   UNL     1       2.082   5.217  -7.615  0.00  0.00    -0.153 NA
ATOM     10  C   UNL     1       3.609   5.526 -11.167  0.00  0.00    +0.026 A 
ATOM     11  C   UNL     1       1.355   6.189  -8.258  0.00  0.00    +0.118 C 
ENDROOT
BRANCH   5  12
ATOM     12  S   UNL     1       5.813   5.589 -12.867  0.00  0.00    +0.099 S 
ATOM     13  O   UNL     1       6.129   6.820 -13.659  0.00  0.00    -0.150 OA
ATOM     14  O   UNL     1       5.068   4.570 -13.658  0.00  0.00    -0.150 OA
ATOM     15  N   UNL     1       7.255   4.876 -12.274  0.00  0.00    +0.040 NA
ENDBRANCH   5  12
BRANCH   1  16
ATOM     16  N   UNL     1       1.115   4.595  -9.930  0.00  0.00    -0.214 NA
BRANCH  16  18
ATOM     17  C   UNL     1      -0.071   4.615 -11.347  0.00  0.00    +0.020 C 
ATOM     18  C   UNL     1      -0.020   4.739 -10.848  0.00  0.00    +0.089 C 
ENDBRANCH  16  18
ENDBRANCH   1  16
BRANCH   9  19
ATOM     19  C   UNL     1       1.642   4.387  -6.611  0.00  0.00    +0.098 C 
BRANCH  19  20
ATOM     20  C   UNL     1       0.554   4.979  -5.764  0.00  0.00    +0.051 C 
BRANCH  20  21
ATOM     21  C   UNL     1       0.964   5.638  -4.538  0.00  0.00    +0.144 C 
BRANCH  21  22
ATOM     22  O   UNL     1       2.058   5.325  -3.867  0.00  0.00    -0.351 OA
ATOM     23  C   UNL     1       2.893   6.240  -3.346  0.00  0.00    +0.174 C 
ENDBRANCH  21  22
ENDBRANCH  20  21
ENDBRANCH  19  20
ENDBRANCH   9  19
TORSDOF 7
ENDMDL
MODEL 6
REMARK VINA RESULT:      -6.4      2.888      4.128
REMARK  Name = 
REMARK  7 active torsions:
REMARK  status: ('A' for Active; 'I' for Inactive)
REMARK    1  A    between atoms: C_2  and  N_3
REMARK    2  A    between atoms: N_3  and  C_4
REMARK    3  A    between atoms: N_6  and  C_7
REMARK    4  A    between atoms: C_7  and  C_8
REMARK    5  A    between atoms: C_8  and  C_9
REMARK    6  A    between atoms: C_9  and  O_10
REMARK    7  A    between atoms: C_17  and  S_18
REMARK                            x       y       z     vdW  Elec       q    Type
REMARK                         _______ _______ _______ _____ _____    ______ ____
ROOT
ATOM      1  C   UNL     1       0.403   5.611  -5.305  0.00  0.00    +0.114 C 
ATOM      2  C   UNL     1       1.940   5.733  -4.802  0.00  0.00    +0.022 A 
ATOM      3  C   UNL     1       2.854   4.943  -5.387  0.00  0.00    +0.150 A 
ATOM      4  S   UNL     1       3.976   4.660  -4.108  0.00  0.00    -0.048 S 
ATOM      5  C   UNL     1       3.058   5.325  -2.820  0.00  0.00    +0.155 A 
ATOM      6  S   UNL     1       3.076   5.219  -7.127  0.00  0.00    +0.069 S 
ATOM      7  O   UNL     1       4.366   5.844  -7.465  0.00  0.00    -0.152 OA
ATOM      8  O   UNL     1       2.782   3.948  -7.842  0.00  0.00    -0.152 OA
ATOM      9  N   UNL     1       1.715   6.289  -7.331  0.00  0.00    -0.153 NA
ATOM     10  C   UNL     1       2.085   5.979  -3.481  0.00  0.00    +0.026 A 
ATOM     11  C   UNL     1       0.694   5.468  -6.916  0.00  0.00    +0.118 C 
ENDROOT
BRANCH   5  12
ATOM     12  S   UNL     1       3.666   5.706  -1.207  0.00  0.00    +0.099 S 
ATOM     13  O   UNL     1       4.488   4.558  -0.708  0.00  0.00    -0.150 OA
ATOM     14  O   UNL     1       2.495   5.999  -0.333  0.00  0.00    -0.150 OA
ATOM     15  N   UNL     1       4.628   7.120  -1.326  0.00  0.00    +0.040 NA
ENDBRANCH   5  12
BRANCH   1  16
ATOM     16  N   UNL     1       0.226   7.176  -5.413  0.00  0.00    -0.214 NA
BRANCH  16  18
ATOM     17  C   UNL     1      -1.405   7.618  -4.663  0.00  0.00    +0.020 C 
ATOM     18  C   UNL     1      -1.151   7.242  -4.910  0.00  0.00    +0.089 C 
ENDBRANCH  16  18
ENDBRANCH   1  16
BRANCH   9  19
ATOM     19  C   UNL     1       1.716   7.112  -8.432  0.00  0.00    +0.098 C 
BRANCH  19  20
ATOM     20  C   UNL     1       1.117   6.488  -9.658  0.00  0.00    +0.051 C 
BRANCH  20  21
ATOM     21  C   UNL     1       2.037   6.117 -10.718  0.00  0.00    +0.144 C 
BRANCH  21  22
ATOM     22  O   UNL     1       3.334   6.364 -10.684  0.00  0.00    -0.351 OA
ATOM     23  C   UNL     1       4.269   5.441 -10.969  0.00  0.00    +0.174 C 
ENDBRANCH  21  22
ENDBRANCH  20  21
ENDBRANCH  19  20
ENDBRANCH   9  19
TORSDOF 7
ENDMDL
MODEL 7
REMARK VINA RESULT:      -6.3      2.965      7.284
REMARK  Name = 
REMARK  7 active torsions:
REMARK  status: ('A' for Active; 'I' for Inactive)
REMARK    1  A    between atoms: C_2  and  N_3
REMARK    2  A    between atoms: N_3  and  C_4
REMARK    3  A    between atoms: N_6  and  C_7
REMARK    4  A    between atoms: C_7  and  C_8
REMARK    5  A    between atoms: C_8  and  C_9
REMARK    6  A    between atoms: C_9  and  O_10
REMARK    7  A    between atoms: C_17  and  S_18
REMARK                            x       y       z     vdW  Elec       q    Type
REMARK                         _______ _______ _______ _____ _____    ______ ____
ROOT
ATOM      1  C   UNL     1       3.776   4.771  -7.597  0.00  0.00    +0.114 C 
ATOM      2  C   UNL     1       3.920   5.643  -8.958  0.00  0.00    +0.022 A 
ATOM      3  C   UNL     1       2.963   5.509  -9.890  0.00  0.00    +0.150 A 
ATOM      4  S   UNL     1       3.835   5.751 -11.358  0.00  0.00    -0.048 S 
ATOM      5  C   UNL     1       5.424   5.716 -10.713  0.00  0.00    +0.155 A 
ATOM      6  S   UNL     1       1.341   6.011  -9.372  0.00  0.00    +0.069 S 
ATOM      7  O   UNL     1       0.873   7.250 -10.017  0.00  0.00    -0.152 OA
ATOM      8  O   UNL     1       0.427   4.845  -9.505  0.00  0.00    -0.152 OA
ATOM      9  N   UNL     1       1.728   6.214  -7.684  0.00  0.00    -0.153 NA
ATOM     10  C   UNL     1       5.189   5.811  -9.390  0.00  0.00    +0.026 A 
ATOM     11  C   UNL     1       2.157   4.945  -7.378  0.00  0.00    +0.118 C 
ENDROOT
BRANCH   5  12
ATOM     12  S   UNL     1       6.893   6.218 -11.553  0.00  0.00    +0.099 S 
ATOM     13  O   UNL     1       7.883   6.725 -10.551  0.00  0.00    -0.150 OA
ATOM     14  O   UNL     1       6.514   7.249 -12.561  0.00  0.00    -0.150 OA
ATOM     15  N   UNL     1       7.523   4.854 -12.376  0.00  0.00    +0.040 NA
ENDBRANCH   5  12
BRANCH   1  16
ATOM     16  N   UNL     1       4.097   6.009  -6.672  0.00  0.00    -0.214 NA
BRANCH  16  18
ATOM     17  C   UNL     1       4.681   5.363  -5.041  0.00  0.00    +0.020 C 
ATOM     18  C   UNL     1       4.376   5.256  -5.444  0.00  0.00    +0.089 C 
ENDBRANCH  16  18
ENDBRANCH   1  16
BRANCH   9  19
ATOM     19  C   UNL     1       0.891   7.005  -6.933  0.00  0.00    +0.098 C 
BRANCH  19  20
ATOM     20  C   UNL     1       0.401   6.351  -5.675  0.00  0.00    +0.051 C 
BRANCH  20  21
ATOM     21  C   UNL     1      -1.020   6.067  -5.597  0.00  0.00    +0.144 C 
BRANCH  21  22
ATOM     22  O   UNL     1      -1.944   6.992  -5.407  0.00  0.00    -0.351 OA
ATOM     23  C   UNL     1      -1.829   7.976  -4.500  0.00  0.00    +0.174 C 
ENDBRANCH  21  22
ENDBRANCH  20  21
ENDBRANCH  19  20
ENDBRANCH   9  19
TORSDOF 7
ENDMDL
MODEL 8
REMARK VINA RESULT:      -6.2      2.869      6.664
REMARK  Name = 
REMARK  7 active torsions:
REMARK  status: ('A' for Active; 'I' for Inactive)
REMARK    1  A    between atoms: C_2  and  N_3
REMARK    2  A    between atoms: N_3  and  C_4
REMARK    3  A    between atoms: N_6  and  C_7
REMARK    4  A    between atoms: C_7  and  C_8
REMARK    5  A    between atoms: C_8  and  C_9
REMARK    6  A    between atoms: C_9  and  O_10
REMARK    7  A    between atoms: C_17  and  S_18
REMARK                            x       y       z     vdW  Elec       q    Type
REMARK                         _______ _______ _______ _____ _____    ______ ____
ROOT
ATOM      1  C   UNL     1       0.374   6.872  -5.667  0.00  0.00    +0.114 C 
ATOM      2  C   UNL     1       1.331   6.379  -6.880  0.00  0.00    +0.022 A 
ATOM      3  C   UNL     1       2.574   6.884  -6.941  0.00  0.00    +0.150 A 
ATOM      4  S   UNL     1       2.880   6.920  -8.638  0.00  0.00    -0.048 S 
ATOM      5  C   UNL     1       1.293   6.563  -9.185  0.00  0.00    +0.155 A 
ATOM      6  S   UNL     1       3.608   6.493  -5.552  0.00  0.00    +0.069 S 
ATOM      7  O   UNL     1       4.689   5.545  -5.870  0.00  0.00    -0.152 OA
ATOM      8  O   UNL     1       4.049   7.767  -4.925  0.00  0.00    -0.152 OA
ATOM      9  N   UNL     1       2.352   5.801  -4.561  0.00  0.00    -0.153 NA
ATOM     10  C   UNL     1       0.693   6.156  -8.050  0.00  0.00    +0.026 A 
ATOM     11  C   UNL     1       1.496   6.872  -4.468  0.00  0.00    +0.118 C 
ENDROOT
BRANCH   5  12
ATOM     12  S   UNL     1       0.846   6.102 -10.829  0.00  0.00    +0.099 S 
ATOM     13  O   UNL     1       0.181   4.761 -10.799  0.00  0.00    -0.150 OA
ATOM     14  O   UNL     1       2.083   6.113 -11.660  0.00  0.00    -0.150 OA
ATOM     15  N   UNL     1      -0.232   7.288 -11.435  0.00  0.00    +0.040 NA
ENDBRANCH   5  12
BRANCH   1  16
ATOM     16  N   UNL     1      -0.086   5.402  -5.322  0.00  0.00    -0.214 NA
BRANCH  16  18
ATOM     17  C   UNL     1      -1.895   5.784  -5.350  0.00  0.00    +0.020 C 
ATOM     18  C   UNL     1      -1.492   5.710  -5.035  0.00  0.00    +0.089 C 
ENDBRANCH  16  18
ENDBRANCH   1  16
BRANCH   9  19
ATOM     19  C   UNL     1       2.738   4.963  -3.541  0.00  0.00    +0.098 C 
BRANCH  19  20
ATOM     20  C   UNL     1       2.595   5.563  -2.173  0.00  0.00    +0.051 C 
BRANCH  20  21
ATOM     21  C   UNL     1       1.597   4.971  -1.301  0.00  0.00    +0.144 C 
BRANCH  21  22
ATOM     22  O   UNL     1       0.359   4.707  -1.676  0.00  0.00    -0.351 OA
ATOM     23  C   UNL     1      -0.677   5.529  -1.438  0.00  0.00    +0.174 C 
ENDBRANCH  21  22
ENDBRANCH  20  21
ENDBRANCH  19  20
ENDBRANCH   9  19
TORSDOF 7
ENDMDL
MODEL 9
REMARK VINA RESULT:      -6.1      2.554      3.562
REMARK  Name = 
REMARK  7 active torsions:
REMARK  status: ('A' for Active; 'I' for Inactive)
REMARK    1  A    between atoms: C_2  and  N_3
REMARK    2  A    between atoms: N_3  and  C_4
REMARK    3  A    between atoms: N_6  and  C_7
REMARK    4  A    between atoms: C_7  and  C_8
REMARK    5  A    between atoms: C_8  and  C_9
REMARK    6  A    between atoms: C_9  and  O_10
REMARK    7  A    between atoms: C_17  and  S_18
REMARK                            x       y       z     vdW  Elec       q    Type
REMARK                         _______ _______ _______ _____ _____    ______ ____
ROOT
ATOM      1  C   UNL     1       0.584   4.795  -5.232  0.00  0.00    +0.114 C 
ATOM      2  C   UNL     1       0.733   5.777  -3.949  0.00  0.00    +0.022 A 
ATOM      3  C   UNL     1       1.795   5.600  -3.146  0.00  0.00    +0.150 A 
ATOM      4  S   UNL     1       1.174   6.052  -1.602  0.00  0.00    -0.048 S 
ATOM      5  C   UNL     1      -0.486   6.160  -2.022  0.00  0.00    +0.155 A 
ATOM      6  S   UNL     1       3.369   5.863  -3.921  0.00  0.00    +0.069 S 
ATOM      7  O   UNL     1       4.056   7.082  -3.461  0.00  0.00    -0.152 OA
ATOM      8  O   UNL     1       4.161   4.609  -3.808  0.00  0.00    -0.152 OA
ATOM      9  N   UNL     1       2.767   5.985  -5.553  0.00  0.00    -0.153 NA
ATOM     10  C   UNL     1      -0.435   6.128  -3.367  0.00  0.00    +0.026 A 
ATOM     11  C   UNL     1       2.163   4.757  -5.682  0.00  0.00    +0.118 C 
ENDROOT
BRANCH   5  12
ATOM     12  S   UNL     1      -1.755   6.896  -1.040  0.00  0.00    +0.099 S 
ATOM     13  O   UNL     1      -1.415   8.334  -0.797  0.00  0.00    -0.150 OA
ATOM     14  O   UNL     1      -1.872   6.111   0.221  0.00  0.00    -0.150 OA
ATOM     15  N   UNL     1      -3.230   6.770  -1.903  0.00  0.00    +0.040 NA
ENDBRANCH   5  12
BRANCH   1  16
ATOM     16  N   UNL     1       0.268   5.990  -6.214  0.00  0.00    -0.214 NA
BRANCH  16  18
ATOM     17  C   UNL     1      -1.274   5.297  -6.960  0.00  0.00    +0.020 C 
ATOM     18  C   UNL     1      -0.760   5.310  -7.009  0.00  0.00    +0.089 C 
ENDBRANCH  16  18
ENDBRANCH   1  16
BRANCH   9  19
ATOM     19  C   UNL     1       3.567   6.612  -6.478  0.00  0.00    +0.098 C 
BRANCH  19  20
ATOM     20  C   UNL     1       4.444   5.677  -7.259  0.00  0.00    +0.051 C 
BRANCH  20  21
ATOM     21  C   UNL     1       4.260   5.658  -8.699  0.00  0.00    +0.144 C 
BRANCH  21  22
ATOM     22  O   UNL     1       5.240   5.839  -9.566  0.00  0.00    -0.351 OA
ATOM     23  C   UNL     1       6.535   5.633  -9.271  0.00  0.00    +0.174 C 
ENDBRANCH  21  22
ENDBRANCH  20  21
ENDBRANCH  19  20
ENDBRANCH   9  19
TORSDOF 7
ENDMDL
