MODEL 1
REMARK VINA RESULT:      -4.2      0.000      0.000
REMARK  Name = 
REMARK  1 active torsions:
REMARK  status: ('A' for Active; 'I' for Inactive)
REMARK    1  A    between atoms: C_2  and  CA_4
REMARK                            x       y       z     vdW  Elec       q    Type
REMARK                         _______ _______ _______ _____ _____    ______ ____
ROOT
ATOM      1  CA  PRO A   1       6.956   6.624 -12.510  0.00  0.00    +0.176 C 
ATOM      2  N   PRO A   1       5.639   5.945 -11.992  0.00  0.00    -0.208 NA
ATOM      3  CD  PRO A   1       5.879   5.551 -10.688  0.00  0.00    +0.089 C 
ATOM      4  CG  PRO A   1       7.174   6.055 -10.161  0.00  0.00    +0.021 C 
ATOM      5  CB  PRO A   1       7.323   7.259 -11.040  0.00  0.00    +0.030 C 
ENDROOT
BRANCH   1   7
ATOM      6  O   PRO A   1       7.654   4.660 -12.400  0.00  0.00    -0.244 OA
ATOM      7  C   PRO A   1       7.855   5.303 -12.266  0.00  0.00    +0.380 C 
ATOM      8  OXT PRO A   1       9.175   5.729 -12.043  0.00  0.00    -0.244 OA
ENDBRANCH   1   7
TORSDOF 1
ENDMDL
MODEL 2
REMARK VINA RESULT:      -4.1      1.196      2.148
REMARK  Name = 
REMARK  1 active torsions:
REMARK  status: ('A' for Active; 'I' for Inactive)
REMARK    1  A    between atoms: C_2  and  CA_4
REMARK                            x       y       z     vdW  Elec       q    Type
REMARK                         _______ _______ _______ _____ _____    ______ ____
ROOT
ATOM      1  CA  PRO A   1       7.623   5.577 -10.587  0.00  0.00    +0.176 C 
ATOM      2  N   PRO A   1       7.682   7.121 -10.312  0.00  0.00    -0.208 NA
ATOM      3  CD  PRO A   1       6.915   7.731 -11.289  0.00  0.00    +0.089 C 
ATOM      4  CG  PRO A   1       6.156   6.759 -12.118  0.00  0.00    +0.021 C 
ATOM      5  CB  PRO A   1       6.073   5.634 -11.132  0.00  0.00    +0.030 C 
ENDROOT
BRANCH   1   7
ATOM      6  O   PRO A   1       8.754   6.142 -12.248  0.00  0.00    -0.244 OA
ATOM      7  C   PRO A   1       8.247   5.714 -12.072  0.00  0.00    +0.380 C 
ATOM      8  OXT PRO A   1       7.794   4.614 -12.820  0.00  0.00    -0.244 OA
ENDBRANCH   1   7
TORSDOF 1
ENDMDL
MODEL 3
REMARK VINA RESULT:      -4.0     11.982     12.897
REMARK  Name = 
REMARK  1 active torsions:
REMARK  status: ('A' for Active; 'I' for Inactive)
REMARK    1  A    between atoms: C_2  and  CA_4
REMARK                            x       y       z     vdW  Elec       q    Type
REMARK                         _______ _______ _______ _____ _____    ______ ____
ROOT
ATOM      1  CA  PRO A   1      -3.192   5.250  -3.421  0.00  0.00    +0.176 C 
ATOM      2  N   PRO A   1      -2.275   4.837  -2.216  0.00  0.00    -0.208 NA
ATOM      3  CD  PRO A   1      -1.756   6.006  -1.690  0.00  0.00    +0.089 C 
ATOM      4  CG  PRO A   1      -2.365   7.226  -2.281  0.00  0.00    +0.021 C 
ATOM      5  CB  PRO A   1      -3.680   6.643  -2.700  0.00  0.00    +0.030 C 
ENDROOT
BRANCH   1   7
ATOM      6  O   PRO A   1      -1.345   5.743  -4.258  0.00  0.00    -0.244 OA
ATOM      7  C   PRO A   1      -1.989   5.976  -4.220  0.00  0.00    +0.380 C 
ATOM      8  OXT PRO A   1      -2.567   6.955  -5.047  0.00  0.00    -0.244 OA
ENDBRANCH   1   7
TORSDOF 1
ENDMDL
MODEL 4
REMARK VINA RESULT:      -4.0     11.731     12.669
REMARK  Name = 
REMARK  1 active torsions:
REMARK  status: ('A' for Active; 'I' for Inactive)
REMARK    1  A    between atoms: C_2  and  CA_4
REMARK                            x       y       z     vdW  Elec       q    Type
REMARK                         _______ _______ _______ _____ _____    ______ ____
ROOT
ATOM      1  CA  PRO A   1      -1.459   6.366  -2.649  0.00  0.00    +0.176 C 
ATOM      2  N   PRO A   1      -0.647   5.573  -3.734  0.00  0.00    -0.208 NA
ATOM      3  CD  PRO A   1      -1.335   5.710  -4.927  0.00  0.00    +0.089 C 
ATOM      4  CG  PRO A   1      -2.454   6.683  -4.840  0.00  0.00    +0.021 C 
ATOM      5  CB  PRO A   1      -1.938   7.524  -3.712  0.00  0.00    +0.030 C 
ENDROOT
BRANCH   1   7
ATOM      6  O   PRO A   1      -2.816   4.802  -2.915  0.00  0.00    -0.244 OA
ATOM      7  C   PRO A   1      -2.798   5.487  -2.861  0.00  0.00    +0.380 C 
ATOM      8  OXT PRO A   1      -3.896   6.326  -2.606  0.00  0.00    -0.244 OA
ENDBRANCH   1   7
TORSDOF 1
ENDMDL
MODEL 5
REMARK VINA RESULT:      -3.9      1.976      2.486
REMARK  Name = 
REMARK  1 active torsions:
REMARK  status: ('A' for Active; 'I' for Inactive)
REMARK    1  A    between atoms: C_2  and  CA_4
REMARK                            x       y       z     vdW  Elec       q    Type
REMARK                         _______ _______ _______ _____ _____    ______ ____
ROOT
ATOM      1  CA  PRO A   1       6.135   5.484 -12.000  0.00  0.00    +0.176 C 
ATOM      2  N   PRO A   1       7.356   4.892 -12.788  0.00  0.00    -0.208 NA
ATOM      3  CD  PRO A   1       8.484   5.543 -12.325  0.00  0.00    +0.089 C 
ATOM      4  CG  PRO A   1       8.211   6.405 -11.146  0.00  0.00    +0.021 C 
ATOM      5  CB  PRO A   1       7.001   5.694 -10.621  0.00  0.00    +0.030 C 
ENDROOT
BRANCH   1   7
ATOM      6  O   PRO A   1       6.556   7.170 -13.157  0.00  0.00    -0.244 OA
ATOM      7  C   PRO A   1       6.407   6.994 -12.510  0.00  0.00    +0.380 C 
ATOM      8  OXT PRO A   1       5.983   7.863 -11.491  0.00  0.00    -0.244 OA
ENDBRANCH   1   7
TORSDOF 1
ENDMDL
MODEL 6
REMARK VINA RESULT:      -3.6     11.921     12.686
REMARK  Name = 
REMARK  1 active torsions:
REMARK  status: ('A' for Active; 'I' for Inactive)
REMARK    1  A    between atoms: C_2  and  CA_4
REMARK                            x       y       z     vdW  Elec       q    Type
REMARK                         _______ _______ _______ _____ _____    ______ ____
ROOT
ATOM      1  CA  PRO A   1      -2.079   7.237  -2.432  0.00  0.00    +0.176 C 
ATOM      2  N   PRO A   1      -2.066   7.698  -3.932  0.00  0.00    -0.208 NA
ATOM      3  CD  PRO A   1      -2.462   6.610  -4.688  0.00  0.00    +0.089 C 
ATOM      4  CG  PRO A   1      -2.943   5.474  -3.859  0.00  0.00    +0.021 C 
ATOM      5  CB  PRO A   1      -3.370   6.244  -2.647  0.00  0.00    +0.030 C 
ENDROOT
BRANCH   1   7
ATOM      6  O   PRO A   1      -0.453   6.100  -3.081  0.00  0.00    -0.244 OA
ATOM      7  C   PRO A   1      -1.009   6.051  -2.680  0.00  0.00    +0.380 C 
ATOM      8  OXT PRO A   1      -1.250   5.060  -1.713  0.00  0.00    -0.244 OA
ENDBRANCH   1   7
TORSDOF 1
ENDMDL
MODEL 7
REMARK VINA RESULT:      -3.5     11.366     12.271
REMARK  Name = 
REMARK  1 active torsions:
REMARK  status: ('A' for Active; 'I' for Inactive)
REMARK    1  A    between atoms: C_2  and  CA_4
REMARK                            x       y       z     vdW  Elec       q    Type
REMARK                         _______ _______ _______ _____ _____    ______ ____
ROOT
ATOM      1  CA  PRO A   1      -0.796   6.243  -3.345  0.00  0.00    +0.176 C 
ATOM      2  N   PRO A   1      -1.800   5.265  -2.639  0.00  0.00    -0.208 NA
ATOM      3  CD  PRO A   1      -2.872   5.103  -3.498  0.00  0.00    +0.089 C 
ATOM      4  CG  PRO A   1      -2.642   5.718  -4.831  0.00  0.00    +0.021 C 
ATOM      5  CB  PRO A   1      -1.144   5.673  -4.846  0.00  0.00    +0.030 C 
ENDROOT
BRANCH   1   7
ATOM      6  O   PRO A   1      -2.311   7.623  -2.950  0.00  0.00    -0.244 OA
ATOM      7  C   PRO A   1      -1.876   7.441  -3.449  0.00  0.00    +0.380 C 
ATOM      8  OXT PRO A   1      -1.549   8.204  -4.582  0.00  0.00    -0.244 OA
ENDBRANCH   1   7
TORSDOF 1
ENDMDL
MODEL 8
REMARK VINA RESULT:      -3.4      5.678      6.431
REMARK  Name = 
REMARK  1 active torsions:
REMARK  status: ('A' for Active; 'I' for Inactive)
REMARK    1  A    between atoms: C_2  and  CA_4
REMARK                            x       y       z     vdW  Elec       q    Type
REMARK                         _______ _______ _______ _____ _____    ______ ____
ROOT
ATOM      1  CA  PRO A   1       1.473   6.264  -7.785  0.00  0.00    +0.176 C 
ATOM      2  N   PRO A   1       1.381   6.415  -9.344  0.00  0.00    -0.208 NA
ATOM      3  CD  PRO A   1       2.679   6.484  -9.817  0.00  0.00    +0.089 C 
ATOM      4  CG  PRO A   1       3.692   6.203  -8.767  0.00  0.00    +0.021 C 
ATOM      5  CB  PRO A   1       2.847   5.366  -7.855  0.00  0.00    +0.030 C 
ENDROOT
BRANCH   1   7
ATOM      6  O   PRO A   1       2.137   8.238  -7.923  0.00  0.00    -0.244 OA
ATOM      7  C   PRO A   1       2.280   7.652  -7.595  0.00  0.00    +0.380 C 
ATOM      8  OXT PRO A   1       3.085   7.516  -6.451  0.00  0.00    -0.244 OA
ENDBRANCH   1   7
TORSDOF 1
ENDMDL
MODEL 9
REMARK VINA RESULT:      -3.4      6.285      7.117
REMARK  Name = 
REMARK  1 active torsions:
REMARK  status: ('A' for Active; 'I' for Inactive)
REMARK    1  A    between atoms: C_2  and  CA_4
REMARK                            x       y       z     vdW  Elec       q    Type
REMARK                         _______ _______ _______ _____ _____    ______ ____
ROOT
ATOM      1  CA  PRO A   1       3.226   6.519  -7.653  0.00  0.00    +0.176 C 
ATOM      2  N   PRO A   1       3.254   6.917  -6.135  0.00  0.00    -0.208 NA
ATOM      3  CD  PRO A   1       1.959   6.796  -5.666  0.00  0.00    +0.089 C 
ATOM      4  CG  PRO A   1       1.044   6.166  -6.653  0.00  0.00    +0.021 C 
ATOM      5  CB  PRO A   1       2.056   5.387  -7.436  0.00  0.00    +0.030 C 
ENDROOT
BRANCH   1   7
ATOM      6  O   PRO A   1       2.169   8.314  -7.790  0.00  0.00    -0.244 OA
ATOM      7  C   PRO A   1       2.165   7.675  -8.042  0.00  0.00    +0.380 C 
ATOM      8  OXT PRO A   1       1.465   7.236  -9.178  0.00  0.00    -0.244 OA
ENDBRANCH   1   7
TORSDOF 1
ENDMDL
