MODEL 1
REMARK VINA RESULT:      -9.4      0.000      0.000
REMARK  Name = 
REMARK  4 active torsions:
REMARK  status: ('A' for Active; 'I' for Inactive)
REMARK    1  A    between atoms: C_3  and  C_5
REMARK    2  A    between atoms: C_5  and  O_7
REMARK    3  A    between atoms: O_7  and  C_8
REMARK    4  A    between atoms: C_17  and  C_18
REMARK                            x       y       z     vdW  Elec       q    Type
REMARK                         _______ _______ _______ _____ _____    ______ ____
ROOT
ATOM      1  C   UNL     1       0.377   5.323  -5.192  0.00  0.00    +0.218 C 
ATOM      2  C   UNL     1       1.700   6.206  -5.656  0.00  0.00    +0.207 C 
ATOM      3  C   UNL     1       1.580   6.005  -7.080  0.00  0.00    +0.102 C 
ATOM      4  C   UNL     1       1.475   7.345  -7.972  0.00  0.00    +0.013 C 
ATOM      5  C   UNL     1       0.559   6.688  -9.167  0.00  0.00    +0.001 C 
ATOM      6  C   UNL     1       2.824   7.233  -8.873  0.00  0.00    +0.001 C 
ATOM      7  C   UNL     1       2.782   5.852  -9.748  0.00  0.00    +0.001 C 
ATOM      8  C   UNL     1       4.363   6.043 -10.314  0.00  0.00    +0.001 C 
ATOM      9  C   UNL     1       4.408   5.030 -11.460  0.00  0.00    +0.000 C 
ATOM     10  C   UNL     1       5.118   7.148 -10.177  0.00  0.00    +0.000 C 
ATOM     11  C   UNL     1       4.102   4.994  -9.020  0.00  0.00    +0.011 C 
ATOM     12  C   UNL     1       4.075   6.041  -7.685  0.00  0.00    +0.079 C 
ATOM     13  C   UNL     1       4.718   5.121  -6.543  0.00  0.00    -0.023 C 
ATOM     14  C   UNL     1       4.137   5.608  -5.396  0.00  0.00    +0.017 C 
ATOM     15  C   UNL     1       2.662   5.299  -7.475  0.00  0.00    +0.160 C 
ATOM     16  O   UNL     1       2.661   4.117  -7.396  0.00  0.00    -0.295 OA
ATOM     17  C   UNL     1       0.400   5.137  -7.378  0.00  0.00    -0.022 C 
ATOM     18  O   UNL     1       1.821   7.302  -5.020  0.00  0.00    -0.218 OA
ATOM     19  C   UNL     1       2.663   4.991  -5.054  0.00  0.00    +0.205 C 
ATOM     20  O   UNL     1       2.649   5.578  -3.649  0.00  0.00    -0.216 OA
ATOM     21  C   UNL     1      -0.451   5.682  -6.541  0.00  0.00    -0.006 C 
ATOM     22  C   UNL     1      -1.886   5.288  -6.668  0.00  0.00    +0.030 C 
ENDROOT
BRANCH  14  23
ATOM     23  C   UNL     1       5.093   5.424  -4.251  0.00  0.00    +0.207 C 
ATOM     24  O   UNL     1       5.614   6.649  -3.862  0.00  0.00    -0.215 OA
ENDBRANCH  14  23
BRANCH   1  25
ATOM     25  O   UNL     1      -0.355   6.443  -4.420  0.00  0.00    -0.442 OA
BRANCH  25  26
ATOM     26  C   UNL     1      -0.853   5.802  -3.276  0.00  0.00    +0.337 C 
ATOM     27  O   UNL     1      -0.207   4.857  -2.731  0.00  0.00    -0.245 OA
BRANCH  26  30
ATOM     28  C   UNL     1      -3.381   5.223  -3.562  0.00  0.00    +0.031 C 
ATOM     29  C   UNL     1      -3.137   5.787  -2.716  0.00  0.00    -0.024 C 
ATOM     30  C   UNL     1      -1.957   6.311  -2.470  0.00  0.00    +0.050 C 
ATOM     31  C   UNL     1      -1.722   7.454  -1.531  0.00  0.00    +0.037 C 
ENDBRANCH  26  30
ENDBRANCH  25  26
ENDBRANCH   1  25
TORSDOF 4
ENDMDL
MODEL 2
REMARK VINA RESULT:      -9.3      2.733      7.963
REMARK  Name = 
REMARK  4 active torsions:
REMARK  status: ('A' for Active; 'I' for Inactive)
REMARK    1  A    between atoms: C_3  and  C_5
REMARK    2  A    between atoms: C_5  and  O_7
REMARK    3  A    between atoms: O_7  and  C_8
REMARK    4  A    between atoms: C_17  and  C_18
REMARK                            x       y       z     vdW  Elec       q    Type
REMARK                         _______ _______ _______ _____ _____    ______ ____
ROOT
ATOM      1  C   UNL     1       4.480   5.259 -10.192  0.00  0.00    +0.218 C 
ATOM      2  C   UNL     1       3.237   6.242  -9.709  0.00  0.00    +0.207 C 
ATOM      3  C   UNL     1       3.283   5.936  -8.299  0.00  0.00    +0.102 C 
ATOM      4  C   UNL     1       3.490   7.196  -7.314  0.00  0.00    +0.013 C 
ATOM      5  C   UNL     1       4.290   6.372  -6.140  0.00  0.00    +0.001 C 
ATOM      6  C   UNL     1       2.103   7.165  -6.464  0.00  0.00    +0.001 C 
ATOM      7  C   UNL     1       1.974   5.732  -5.686  0.00  0.00    +0.001 C 
ATOM      8  C   UNL     1       0.400   6.047  -5.156  0.00  0.00    +0.001 C 
ATOM      9  C   UNL     1       0.211   4.971  -4.084  0.00  0.00    +0.000 C 
ATOM     10  C   UNL     1      -0.234   7.232  -5.239  0.00  0.00    +0.000 C 
ATOM     11  C   UNL     1       0.602   5.065  -6.511  0.00  0.00    +0.011 C 
ATOM     12  C   UNL     1       0.784   6.190  -7.769  0.00  0.00    +0.079 C 
ATOM     13  C   UNL     1       0.095   5.418  -8.991  0.00  0.00    -0.023 C 
ATOM     14  C   UNL     1       0.764   5.916 -10.083  0.00  0.00    +0.017 C 
ATOM     15  C   UNL     1       2.121   5.321  -7.987  0.00  0.00    +0.160 C 
ATOM     16  O   UNL     1       2.007   4.153  -8.147  0.00  0.00    -0.295 OA
ATOM     17  C   UNL     1       4.358   4.933  -8.027  0.00  0.00    -0.022 C 
ATOM     18  O   UNL     1       3.250   7.383 -10.271  0.00  0.00    -0.218 OA
ATOM     19  C   UNL     1       2.180   5.174 -10.422  0.00  0.00    +0.205 C 
ATOM     20  O   UNL     1       2.305   5.848 -11.783  0.00  0.00    -0.216 OA
ATOM     21  C   UNL     1       5.290   5.441  -8.798  0.00  0.00    -0.006 C 
ATOM     22  C   UNL     1       6.672   4.894  -8.655  0.00  0.00    +0.030 C 
ENDROOT
BRANCH  14  23
ATOM     23  C   UNL     1      -0.163   5.908 -11.266  0.00  0.00    +0.207 C 
ATOM     24  O   UNL     1      -0.863   7.103 -11.334  0.00  0.00    -0.215 OA
ENDBRANCH  14  23
BRANCH   1  25
ATOM     25  O   UNL     1       5.350   6.346 -10.863  0.00  0.00    -0.442 OA
BRANCH  25  26
ATOM     26  C   UNL     1       5.841   5.727 -12.021  0.00  0.00    +0.337 C 
ATOM     27  O   UNL     1       5.261   4.708 -12.505  0.00  0.00    -0.245 OA
BRANCH  26  30
ATOM     28  C   UNL     1       8.431   5.629 -11.728  0.00  0.00    +0.031 C 
ATOM     29  C   UNL     1       8.091   6.040 -12.628  0.00  0.00    -0.024 C 
ATOM     30  C   UNL     1       6.838   6.321 -12.906  0.00  0.00    +0.050 C 
ATOM     31  C   UNL     1       6.406   7.288 -13.963  0.00  0.00    +0.037 C 
ENDBRANCH  26  30
ENDBRANCH  25  26
ENDBRANCH   1  25
TORSDOF 4
ENDMDL
MODEL 3
REMARK VINA RESULT:      -9.2      2.235      6.627
REMARK  Name = 
REMARK  4 active torsions:
REMARK  status: ('A' for Active; 'I' for Inactive)
REMARK    1  A    between atoms: C_3  and  C_5
REMARK    2  A    between atoms: C_5  and  O_7
REMARK    3  A    between atoms: O_7  and  C_8
REMARK    4  A    between atoms: C_17  and  C_18
REMARK                            x       y       z     vdW  Elec       q    Type
REMARK                         _______ _______ _______ _____ _____    ______ ____
ROOT
ATOM      1  C   UNL     1       2.816   5.066  -6.621  0.00  0.00    +0.218 C 
ATOM      2  C   UNL     1       2.211   6.153  -5.527  0.00  0.00    +0.207 C 
ATOM      3  C   UNL     1       3.393   6.286  -4.709  0.00  0.00    +0.102 C 
ATOM      4  C   UNL     1       3.970   7.784  -4.546  0.00  0.00    +0.013 C 
ATOM      5  C   UNL     1       5.544   7.348  -4.374  0.00  0.00    +0.001 C 
ATOM      6  C   UNL     1       3.803   8.016  -2.945  0.00  0.00    +0.001 C 
ATOM      7  C   UNL     1       4.666   6.884  -2.139  0.00  0.00    +0.001 C 
ATOM      8  C   UNL     1       4.060   7.350  -0.632  0.00  0.00    +0.001 C 
ATOM      9  C   UNL     1       5.027   6.648   0.324  0.00  0.00    +0.000 C 
ATOM     10  C   UNL     1       3.335   8.457  -0.385  0.00  0.00    +0.000 C 
ATOM     11  C   UNL     1       3.377   6.005  -1.383  0.00  0.00    +0.011 C 
ATOM     12  C   UNL     1       2.251   6.698  -2.447  0.00  0.00    +0.079 C 
ATOM     13  C   UNL     1       1.088   5.596  -2.445  0.00  0.00    -0.023 C 
ATOM     14  C   UNL     1       0.530   5.740  -3.692  0.00  0.00    +0.017 C 
ATOM     15  C   UNL     1       3.088   5.798  -3.487  0.00  0.00    +0.160 C 
ATOM     16  O   UNL     1       3.176   4.637  -3.273  0.00  0.00    -0.295 OA
ATOM     17  C   UNL     1       4.482   5.407  -5.235  0.00  0.00    -0.022 C 
ATOM     18  O   UNL     1       1.515   7.073  -6.064  0.00  0.00    -0.218 OA
ATOM     19  C   UNL     1       1.290   4.925  -4.887  0.00  0.00    +0.205 C 
ATOM     20  O   UNL     1       0.160   5.157  -5.881  0.00  0.00    -0.216 OA
ATOM     21  C   UNL     1       4.324   5.656  -6.514  0.00  0.00    -0.006 C 
ATOM     22  C   UNL     1       5.388   5.172  -7.444  0.00  0.00    +0.030 C 
ENDROOT
BRANCH  14  23
ATOM     23  C   UNL     1      -0.927   5.380  -3.617  0.00  0.00    +0.207 C 
ATOM     24  O   UNL     1      -1.262   5.009  -2.323  0.00  0.00    -0.215 OA
ENDBRANCH  14  23
BRANCH   1  25
ATOM     25  O   UNL     1       2.559   5.897  -7.898  0.00  0.00    -0.442 OA
BRANCH  25  26
ATOM     26  C   UNL     1       2.294   4.937  -8.885  0.00  0.00    +0.337 C 
ATOM     27  O   UNL     1       2.375   3.698  -8.621  0.00  0.00    -0.245 OA
BRANCH  26  30
ATOM     28  C   UNL     1       3.412   6.068 -10.953  0.00  0.00    +0.031 C 
ATOM     29  C   UNL     1       2.447   5.695 -11.105  0.00  0.00    -0.024 C 
ATOM     30  C   UNL     1       1.656   5.233 -10.163  0.00  0.00    +0.050 C 
ATOM     31  C   UNL     1       0.169   5.124 -10.290  0.00  0.00    +0.037 C 
ENDBRANCH  26  30
ENDBRANCH  25  26
ENDBRANCH   1  25
TORSDOF 4
ENDMDL
MODEL 4
REMARK VINA RESULT:      -9.1      2.217      4.714
REMARK  Name = 
REMARK  4 active torsions:
REMARK  status: ('A' for Active; 'I' for Inactive)
REMARK    1  A    between atoms: C_3  and  C_5
REMARK    2  A    between atoms: C_5  and  O_7
REMARK    3  A    between atoms: O_7  and  C_8
REMARK    4  A    between atoms: C_17  and  C_18
REMARK                            x       y       z     vdW  Elec       q    Type
REMARK                         _______ _______ _______ _____ _____    ______ ____
ROOT
ATOM      1  C   UNL     1       2.450   6.992  -4.116  0.00  0.00    +0.218 C 
ATOM      2  C   UNL     1       1.662   5.822  -4.985  0.00  0.00    +0.207 C 
ATOM      3  C   UNL     1       2.360   6.005  -6.236  0.00  0.00    +0.102 C 
ATOM      4  C   UNL     1       3.100   4.699  -6.825  0.00  0.00    +0.013 C 
ATOM      5  C   UNL     1       4.307   5.510  -7.588  0.00  0.00    +0.001 C 
ATOM      6  C   UNL     1       2.294   4.479  -8.220  0.00  0.00    +0.001 C 
ATOM      7  C   UNL     1       2.456   5.810  -9.157  0.00  0.00    +0.001 C 
ATOM      8  C   UNL     1       1.356   5.253 -10.314  0.00  0.00    +0.001 C 
ATOM      9  C   UNL     1       1.632   6.198 -11.486  0.00  0.00    +0.000 C 
ATOM     10  C   UNL     1       0.843   4.010 -10.375  0.00  0.00    +0.000 C 
ATOM     11  C   UNL     1       0.815   6.369  -9.173  0.00  0.00    +0.011 C 
ATOM     12  C   UNL     1       0.446   5.392  -7.835  0.00  0.00    +0.079 C 
ATOM     13  C   UNL     1      -0.797   6.176  -7.198  0.00  0.00    -0.023 C 
ATOM     14  C   UNL     1      -0.702   5.865  -5.863  0.00  0.00    +0.017 C 
ATOM     15  C   UNL     1       1.451   6.438  -7.137  0.00  0.00    +0.160 C 
ATOM     16  O   UNL     1       1.194   7.592  -7.212  0.00  0.00    -0.295 OA
ATOM     17  C   UNL     1       3.361   7.107  -6.108  0.00  0.00    -0.022 C 
ATOM     18  O   UNL     1       1.483   4.745  -4.331  0.00  0.00    -0.218 OA
ATOM     19  C   UNL     1       0.322   6.807  -5.005  0.00  0.00    +0.205 C 
ATOM     20  O   UNL     1      -0.176   6.277  -3.667  0.00  0.00    -0.216 OA
ATOM     21  C   UNL     1       3.840   6.791  -4.928  0.00  0.00    -0.006 C 
ATOM     22  C   UNL     1       5.080   7.493  -4.480  0.00  0.00    +0.030 C 
ENDROOT
BRANCH  14  23
ATOM     23  C   UNL     1      -2.081   5.861  -5.266  0.00  0.00    +0.207 C 
ATOM     24  O   UNL     1      -2.733   7.050  -5.559  0.00  0.00    -0.215 OA
ENDBRANCH  14  23
BRANCH   1  25
ATOM     25  O   UNL     1       2.963   6.087  -2.973  0.00  0.00    -0.442 OA
BRANCH  25  26
ATOM     26  C   UNL     1       2.742   6.842  -1.812  0.00  0.00    +0.337 C 
ATOM     27  O   UNL     1       1.711   6.645  -1.099  0.00  0.00    -0.245 OA
BRANCH  26  30
ATOM     28  C   UNL     1       4.685   6.040  -0.268  0.00  0.00    +0.031 C 
ATOM     29  C   UNL     1       4.709   7.049  -0.542  0.00  0.00    -0.024 C 
ATOM     30  C   UNL     1       3.752   7.683  -1.180  0.00  0.00    +0.050 C 
ATOM     31  C   UNL     1       3.581   9.170  -1.179  0.00  0.00    +0.037 C 
ENDBRANCH  26  30
ENDBRANCH  25  26
ENDBRANCH   1  25
TORSDOF 4
ENDMDL
MODEL 5
REMARK VINA RESULT:      -8.9      2.133      6.492
REMARK  Name = 
REMARK  4 active torsions:
REMARK  status: ('A' for Active; 'I' for Inactive)
REMARK    1  A    between atoms: C_3  and  C_5
REMARK    2  A    between atoms: C_5  and  O_7
REMARK    3  A    between atoms: O_7  and  C_8
REMARK    4  A    between atoms: C_17  and  C_18
REMARK                            x       y       z     vdW  Elec       q    Type
REMARK                         _______ _______ _______ _____ _____    ______ ____
ROOT
ATOM      1  C   UNL     1       2.020   5.268  -8.120  0.00  0.00    +0.218 C 
ATOM      2  C   UNL     1       1.617   6.278  -6.870  0.00  0.00    +0.207 C 
ATOM      3  C   UNL     1       2.745   5.992  -6.016  0.00  0.00    +0.102 C 
ATOM      4  C   UNL     1       3.641   7.263  -5.587  0.00  0.00    +0.013 C 
ATOM      5  C   UNL     1       5.059   6.442  -5.457  0.00  0.00    +0.001 C 
ATOM      6  C   UNL     1       3.435   7.267  -3.974  0.00  0.00    +0.001 C 
ATOM      7  C   UNL     1       3.961   5.848  -3.354  0.00  0.00    +0.001 C 
ATOM      8  C   UNL     1       3.387   6.197  -1.803  0.00  0.00    +0.001 C 
ATOM      9  C   UNL     1       4.105   5.140  -0.961  0.00  0.00    +0.000 C 
ATOM     10  C   UNL     1       2.925   7.390  -1.387  0.00  0.00    +0.000 C 
ATOM     11  C   UNL     1       2.459   5.192  -2.787  0.00  0.00    +0.011 C 
ATOM     12  C   UNL     1       1.592   6.295  -3.742  0.00  0.00    +0.079 C 
ATOM     13  C   UNL     1       0.208   5.517  -3.954  0.00  0.00    -0.023 C 
ATOM     14  C   UNL     1      -0.224   5.988  -5.170  0.00  0.00    +0.017 C 
ATOM     15  C   UNL     1       2.261   5.401  -4.902  0.00  0.00    +0.160 C 
ATOM     16  O   UNL     1       2.065   4.233  -4.887  0.00  0.00    -0.295 OA
ATOM     17  C   UNL     1       3.632   4.975  -6.661  0.00  0.00    -0.022 C 
ATOM     18  O   UNL     1       1.187   7.411  -7.258  0.00  0.00    -0.218 OA
ATOM     19  C   UNL     1       0.400   5.218  -6.470  0.00  0.00    +0.205 C 
ATOM     20  O   UNL     1      -0.583   5.870  -7.434  0.00  0.00    -0.216 OA
ATOM     21  C   UNL     1       3.614   5.457  -7.881  0.00  0.00    -0.006 C 
ATOM     22  C   UNL     1       4.592   4.889  -8.857  0.00  0.00    +0.030 C 
ENDROOT
BRANCH  14  23
ATOM     23  C   UNL     1      -1.727   5.978  -5.189  0.00  0.00    +0.207 C 
ATOM     24  O   UNL     1      -2.218   7.235  -4.871  0.00  0.00    -0.215 OA
ENDBRANCH  14  23
BRANCH   1  25
ATOM     25  O   UNL     1       2.042   6.330  -9.242  0.00  0.00    -0.442 OA
BRANCH  25  26
ATOM     26  C   UNL     1       1.354   5.724 -10.302  0.00  0.00    +0.337 C 
ATOM     27  O   UNL     1       0.872   4.557 -10.178  0.00  0.00    -0.245 OA
BRANCH  26  30
ATOM     28  C   UNL     1       2.672   6.033 -12.532  0.00  0.00    +0.031 C 
ATOM     29  C   UNL     1       1.678   6.358 -12.543  0.00  0.00    -0.024 C 
ATOM     30  C   UNL     1       0.895   6.434 -11.491  0.00  0.00    +0.050 C 
ATOM     31  C   UNL     1      -0.332   7.289 -11.414  0.00  0.00    +0.037 C 
ENDBRANCH  26  30
ENDBRANCH  25  26
ENDBRANCH   1  25
TORSDOF 4
ENDMDL
MODEL 6
REMARK VINA RESULT:      -8.7      3.017      6.707
REMARK  Name = 
REMARK  4 active torsions:
REMARK  status: ('A' for Active; 'I' for Inactive)
REMARK    1  A    between atoms: C_3  and  C_5
REMARK    2  A    between atoms: C_5  and  O_7
REMARK    3  A    between atoms: O_7  and  C_8
REMARK    4  A    between atoms: C_17  and  C_18
REMARK                            x       y       z     vdW  Elec       q    Type
REMARK                         _______ _______ _______ _____ _____    ______ ____
ROOT
ATOM      1  C   UNL     1       2.134   5.160  -4.637  0.00  0.00    +0.218 C 
ATOM      2  C   UNL     1       1.750   6.379  -3.583  0.00  0.00    +0.207 C 
ATOM      3  C   UNL     1       3.061   6.557  -3.005  0.00  0.00    +0.102 C 
ATOM      4  C   UNL     1       3.681   8.043  -3.115  0.00  0.00    +0.013 C 
ATOM      5  C   UNL     1       5.254   7.572  -3.173  0.00  0.00    +0.001 C 
ATOM      6  C   UNL     1       3.806   8.451  -1.545  0.00  0.00    +0.001 C 
ATOM      7  C   UNL     1       4.780   7.383  -0.781  0.00  0.00    +0.001 C 
ATOM      8  C   UNL     1       4.459   8.030   0.747  0.00  0.00    +0.001 C 
ATOM      9  C   UNL     1       5.570   7.400   1.591  0.00  0.00    +0.000 C 
ATOM     10  C   UNL     1       3.807   9.182   0.991  0.00  0.00    +0.000 C 
ATOM     11  C   UNL     1       3.633   6.636   0.283  0.00  0.00    +0.011 C 
ATOM     12  C   UNL     1       2.346   7.250  -0.638  0.00  0.00    +0.079 C 
ATOM     13  C   UNL     1       1.185   6.197  -0.310  0.00  0.00    -0.023 C 
ATOM     14  C   UNL     1       0.416   6.225  -1.448  0.00  0.00    +0.017 C 
ATOM     15  C   UNL     1       2.971   6.215  -1.701  0.00  0.00    +0.160 C 
ATOM     16  O   UNL     1       3.078   5.081  -1.377  0.00  0.00    -0.295 OA
ATOM     17  C   UNL     1       4.025   5.589  -3.612  0.00  0.00    -0.022 C 
ATOM     18  O   UNL     1       0.984   7.260  -4.090  0.00  0.00    -0.218 OA
ATOM     19  C   UNL     1       0.939   5.260  -2.658  0.00  0.00    +0.205 C 
ATOM     20  O   UNL     1      -0.346   5.424  -3.459  0.00  0.00    -0.216 OA
ATOM     21  C   UNL     1       3.646   5.704  -4.863  0.00  0.00    -0.006 C 
ATOM     22  C   UNL     1       4.519   5.086  -5.905  0.00  0.00    +0.030 C 
ENDROOT
BRANCH  14  23
ATOM     23  C   UNL     1      -1.010   5.927  -1.079  0.00  0.00    +0.207 C 
ATOM     24  O   UNL     1      -1.703   7.107  -0.854  0.00  0.00    -0.215 OA
ENDBRANCH  14  23
BRANCH   1  25
ATOM     25  O   UNL     1       1.667   5.857  -5.935  0.00  0.00    -0.442 OA
BRANCH  25  26
ATOM     26  C   UNL     1       0.844   4.908  -6.557  0.00  0.00    +0.337 C 
ATOM     27  O   UNL     1       0.932   3.679  -6.257  0.00  0.00    -0.245 OA
BRANCH  26  30
ATOM     28  C   UNL     1       0.831   5.654  -9.057  0.00  0.00    +0.031 C 
ATOM     29  C   UNL     1      -0.107   5.474  -8.632  0.00  0.00    -0.024 C 
ATOM     30  C   UNL     1      -0.329   5.243  -7.357  0.00  0.00    +0.050 C 
ATOM     31  C   UNL     1      -1.654   5.428  -6.686  0.00  0.00    +0.037 C 
ENDBRANCH  26  30
ENDBRANCH  25  26
ENDBRANCH   1  25
TORSDOF 4
ENDMDL
MODEL 7
REMARK VINA RESULT:      -8.7      1.811      6.734
REMARK  Name = 
REMARK  4 active torsions:
REMARK  status: ('A' for Active; 'I' for Inactive)
REMARK    1  A    between atoms: C_3  and  C_5
REMARK    2  A    between atoms: C_5  and  O_7
REMARK    3  A    between atoms: O_7  and  C_8
REMARK    4  A    between atoms: C_17  and  C_18
REMARK                            x       y       z     vdW  Elec       q    Type
REMARK                         _______ _______ _______ _____ _____    ______ ____
ROOT
ATOM      1  C   UNL     1       3.577   6.328  -9.095  0.00  0.00    +0.218 C 
ATOM      2  C   UNL     1       3.060   5.550  -7.727  0.00  0.00    +0.207 C 
ATOM      3  C   UNL     1       1.676   5.956  -7.783  0.00  0.00    +0.102 C 
ATOM      4  C   UNL     1       0.594   4.760  -7.805  0.00  0.00    +0.013 C 
ATOM      5  C   UNL     1      -0.540   5.566  -8.680  0.00  0.00    +0.001 C 
ATOM      6  C   UNL     1      -0.209   5.031  -6.417  0.00  0.00    +0.001 C 
ATOM      7  C   UNL     1      -0.873   6.525  -6.456  0.00  0.00    +0.001 C 
ATOM      8  C   UNL     1      -1.377   6.452  -4.844  0.00  0.00    +0.001 C 
ATOM      9  C   UNL     1      -2.360   7.623  -4.772  0.00  0.00    +0.000 C 
ATOM     10  C   UNL     1      -1.363   5.354  -4.065  0.00  0.00    +0.000 C 
ATOM     11  C   UNL     1       0.040   7.294  -5.198  0.00  0.00    +0.011 C 
ATOM     12  C   UNL     1       1.205   6.061  -5.260  0.00  0.00    +0.079 C 
ATOM     13  C   UNL     1       2.501   6.816  -4.701  0.00  0.00    -0.023 C 
ATOM     14  C   UNL     1       3.532   6.154  -5.324  0.00  0.00    +0.017 C 
ATOM     15  C   UNL     1       1.446   6.735  -6.702  0.00  0.00    +0.160 C 
ATOM     16  O   UNL     1       1.696   7.892  -6.741  0.00  0.00    -0.295 OA
ATOM     17  C   UNL     1       1.446   6.833  -8.970  0.00  0.00    -0.022 C 
ATOM     18  O   UNL     1       3.535   4.376  -7.606  0.00  0.00    -0.218 OA
ATOM     19  C   UNL     1       3.882   6.684  -6.830  0.00  0.00    +0.205 C 
ATOM     20  O   UNL     1       5.185   5.896  -6.896  0.00  0.00    -0.216 OA
ATOM     21  C   UNL     1       2.149   6.154  -9.845  0.00  0.00    -0.006 C 
ATOM     22  C   UNL     1       2.005   6.532 -11.284  0.00  0.00    +0.030 C 
ENDROOT
BRANCH  14  23
ATOM     23  C   UNL     1       4.741   6.187  -4.430  0.00  0.00    +0.207 C 
ATOM     24  O   UNL     1       4.808   5.027  -3.674  0.00  0.00    -0.215 OA
ENDBRANCH  14  23
BRANCH   1  25
ATOM     25  O   UNL     1       4.138   5.091  -9.833  0.00  0.00    -0.442 OA
BRANCH  25  26
ATOM     26  C   UNL     1       5.359   5.532 -10.362  0.00  0.00    +0.337 C 
ATOM     27  O   UNL     1       6.441   5.362  -9.723  0.00  0.00    -0.245 OA
BRANCH  26  30
ATOM     28  C   UNL     1       6.157   7.876 -11.184  0.00  0.00    +0.031 C 
ATOM     29  C   UNL     1       6.073   7.140 -11.922  0.00  0.00    -0.024 C 
ATOM     30  C   UNL     1       5.546   5.950 -11.748  0.00  0.00    +0.050 C 
ATOM     31  C   UNL     1       5.026   5.088 -12.856  0.00  0.00    +0.037 C 
ENDBRANCH  26  30
ENDBRANCH  25  26
ENDBRANCH   1  25
TORSDOF 4
ENDMDL
MODEL 8
REMARK VINA RESULT:      -8.6      1.999      4.213
REMARK  Name = 
REMARK  4 active torsions:
REMARK  status: ('A' for Active; 'I' for Inactive)
REMARK    1  A    between atoms: C_3  and  C_5
REMARK    2  A    between atoms: C_5  and  O_7
REMARK    3  A    between atoms: O_7  and  C_8
REMARK    4  A    between atoms: C_17  and  C_18
REMARK                            x       y       z     vdW  Elec       q    Type
REMARK                         _______ _______ _______ _____ _____    ______ ____
ROOT
ATOM      1  C   UNL     1       0.978   6.357  -6.710  0.00  0.00    +0.218 C 
ATOM      2  C   UNL     1       1.578   5.482  -7.982  0.00  0.00    +0.207 C 
ATOM      3  C   UNL     1       2.931   5.985  -7.943  0.00  0.00    +0.102 C 
ATOM      4  C   UNL     1       4.089   4.874  -7.778  0.00  0.00    +0.013 C 
ATOM      5  C   UNL     1       5.144   5.839  -6.970  0.00  0.00    +0.001 C 
ATOM      6  C   UNL     1       4.906   5.057  -9.172  0.00  0.00    +0.001 C 
ATOM      7  C   UNL     1       5.470   6.590  -9.275  0.00  0.00    +0.001 C 
ATOM      8  C   UNL     1       6.017   6.389 -10.861  0.00  0.00    +0.001 C 
ATOM      9  C   UNL     1       6.922   7.611 -11.035  0.00  0.00    +0.000 C 
ATOM     10  C   UNL     1       6.095   5.220 -11.523  0.00  0.00    +0.000 C 
ATOM     11  C   UNL     1       4.540   7.164 -10.621  0.00  0.00    +0.011 C 
ATOM     12  C   UNL     1       3.457   5.867 -10.454  0.00  0.00    +0.079 C 
ATOM     13  C   UNL     1       2.128   6.472 -11.110  0.00  0.00    -0.023 C 
ATOM     14  C   UNL     1       1.128   5.808 -10.442  0.00  0.00    +0.017 C 
ATOM     15  C   UNL     1       3.136   6.665  -9.093  0.00  0.00    +0.160 C 
ATOM     16  O   UNL     1       2.809   7.800  -9.177  0.00  0.00    -0.295 OA
ATOM     17  C   UNL     1       3.073   6.991  -6.847  0.00  0.00    -0.022 C 
ATOM     18  O   UNL     1       1.185   4.272  -7.991  0.00  0.00    -0.218 OA
ATOM     19  C   UNL     1       0.706   6.461  -9.005  0.00  0.00    +0.205 C 
ATOM     20  O   UNL     1      -0.543   5.598  -8.882  0.00  0.00    -0.216 OA
ATOM     21  C   UNL     1       2.395   6.357  -5.920  0.00  0.00    -0.006 C 
ATOM     22  C   UNL     1       2.478   6.887  -4.526  0.00  0.00    +0.030 C 
ENDROOT
BRANCH  14  23
ATOM     23  C   UNL     1      -0.058   5.669 -11.356  0.00  0.00    +0.207 C 
ATOM     24  O   UNL     1       0.165   4.657 -12.278  0.00  0.00    -0.215 OA
ENDBRANCH  14  23
BRANCH   1  25
ATOM     25  O   UNL     1       0.481   5.166  -5.860  0.00  0.00    -0.442 OA
BRANCH  25  26
ATOM     26  C   UNL     1      -0.769   5.584  -5.381  0.00  0.00    +0.337 C 
ATOM     27  O   UNL     1      -1.832   5.303  -6.015  0.00  0.00    -0.245 OA
BRANCH  26  30
ATOM     28  C   UNL     1      -1.596   7.980  -4.764  0.00  0.00    +0.031 C 
ATOM     29  C   UNL     1      -1.532   7.302  -3.970  0.00  0.00    -0.024 C 
ATOM     30  C   UNL     1      -0.998   6.104  -4.038  0.00  0.00    +0.050 C 
ATOM     31  C   UNL     1      -0.509   5.331  -2.852  0.00  0.00    +0.037 C 
ENDBRANCH  26  30
ENDBRANCH  25  26
ENDBRANCH   1  25
TORSDOF 4
ENDMDL
MODEL 9
REMARK VINA RESULT:      -8.5      1.927      2.842
REMARK  Name = 
REMARK  4 active torsions:
REMARK  status: ('A' for Active; 'I' for Inactive)
REMARK    1  A    between atoms: C_3  and  C_5
REMARK    2  A    between atoms: C_5  and  O_7
REMARK    3  A    between atoms: O_7  and  C_8
REMARK    4  A    between atoms: C_17  and  C_18
REMARK                            x       y       z     vdW  Elec       q    Type
REMARK                         _______ _______ _______ _____ _____    ______ ____
ROOT
ATOM      1  C   UNL     1       1.170   4.984  -8.207  0.00  0.00    +0.218 C 
ATOM      2  C   UNL     1       2.441   6.042  -8.097  0.00  0.00    +0.207 C 
ATOM      3  C   UNL     1       3.006   5.803  -9.404  0.00  0.00    +0.102 C 
ATOM      4  C   UNL     1       3.156   7.099 -10.352  0.00  0.00    +0.013 C 
ATOM      5  C   UNL     1       2.970   6.299 -11.775  0.00  0.00    +0.001 C 
ATOM      6  C   UNL     1       4.770   7.170 -10.542  0.00  0.00    +0.001 C 
ATOM      7  C   UNL     1       5.298   5.783 -11.229  0.00  0.00    +0.001 C 
ATOM      8  C   UNL     1       6.927   6.192 -11.041  0.00  0.00    +0.001 C 
ATOM      9  C   UNL     1       7.611   5.178 -11.962  0.00  0.00    +0.000 C 
ATOM     10  C   UNL     1       7.397   7.397 -10.669  0.00  0.00    +0.000 C 
ATOM     11  C   UNL     1       6.236   5.137  -9.923  0.00  0.00    +0.011 C 
ATOM     12  C   UNL     1       5.479   6.190  -8.829  0.00  0.00    +0.079 C 
ATOM     13  C   UNL     1       5.638   5.391  -7.450  0.00  0.00    -0.023 C 
ATOM     14  C   UNL     1       4.546   5.806  -6.728  0.00  0.00    +0.017 C 
ATOM     15  C   UNL     1       4.227   5.255  -9.215  0.00  0.00    +0.160 C 
ATOM     16  O   UNL     1       4.333   4.087  -9.051  0.00  0.00    -0.295 OA
ATOM     17  C   UNL     1       2.206   4.769 -10.128  0.00  0.00    -0.022 C 
ATOM     18  O   UNL     1       2.126   7.153  -7.565  0.00  0.00    -0.218 OA
ATOM     19  C   UNL     1       3.165   4.988  -7.034  0.00  0.00    +0.205 C 
ATOM     20  O   UNL     1       2.443   5.589  -5.835  0.00  0.00    -0.216 OA
ATOM     21  C   UNL     1       1.009   5.198  -9.807  0.00  0.00    -0.006 C 
ATOM     22  C   UNL     1      -0.152   4.600 -10.531  0.00  0.00    +0.030 C 
ENDROOT
BRANCH  14  23
ATOM     23  C   UNL     1       4.892   5.781  -5.266  0.00  0.00    +0.207 C 
ATOM     24  O   UNL     1       5.164   7.064  -4.816  0.00  0.00    -0.215 OA
ENDBRANCH  14  23
BRANCH   1  25
ATOM     25  O   UNL     1       0.036   5.999  -7.936  0.00  0.00    -0.442 OA
BRANCH  25  26
ATOM     26  C   UNL     1      -0.583   5.518  -6.774  0.00  0.00    +0.337 C 
ATOM     27  O   UNL     1      -0.391   4.327  -6.383  0.00  0.00    -0.245 OA
BRANCH  26  30
ATOM     28  C   UNL     1      -3.152   5.908  -6.536  0.00  0.00    +0.031 C 
ATOM     29  C   UNL     1      -2.559   6.317  -5.779  0.00  0.00    -0.024 C 
ATOM     30  C   UNL     1      -1.246   6.368  -5.790  0.00  0.00    +0.050 C 
ATOM     31  C   UNL     1      -0.433   7.316  -4.965  0.00  0.00    +0.037 C 
ENDBRANCH  26  30
ENDBRANCH  25  26
ENDBRANCH   1  25
TORSDOF 4
ENDMDL
