MODEL 1
REMARK VINA RESULT:      -6.9      0.000      0.000
REMARK  Name = 
REMARK  5 active torsions:
REMARK  status: ('A' for Active; 'I' for Inactive)
REMARK    1  A    between atoms: S_2  and  C_5
REMARK    2  A    between atoms: C_7  and  C_8
REMARK    3  A    between atoms: C_11  and  N_12
REMARK    4  A    between atoms: N_12  and  C_13
REMARK    5  A    between atoms: C_13  and  C_14
REMARK                            x       y       z     vdW  Elec       q    Type
REMARK                         _______ _______ _______ _____ _____    ______ ____
ROOT
ATOM      1  C   UNL     1      -0.587   5.567  -3.876  0.00  0.00    +0.136 A 
ATOM      2  C   UNL     1      -0.873   5.931  -5.185  0.00  0.00    +0.078 A 
ATOM      3 CL   UNL     1      -2.471   5.489  -5.769  0.00  0.00    -0.081 Cl
ATOM      4  C   UNL     1       0.075   6.523  -6.009  0.00  0.00    +0.029 A 
ATOM      5  C   UNL     1       1.395   6.515  -5.573  0.00  0.00    +0.073 A 
ATOM      6  C   UNL     1       1.763   5.800  -4.439  0.00  0.00    +0.096 A 
ATOM      7  C   UNL     1       0.759   5.443  -3.548  0.00  0.00    +0.029 A 
ENDROOT
BRANCH   1   9
ATOM      8  N   UNL     1      -1.130   5.877  -1.077  0.00  0.00    +0.039 NA
ATOM      9  S   UNL     1      -1.825   5.823  -2.659  0.00  0.00    +0.094 S 
ATOM     10  O   UNL     1      -2.539   7.133  -2.907  0.00  0.00    -0.150 OA
ATOM     11  O   UNL     1      -2.785   4.685  -2.717  0.00  0.00    -0.150 OA
ENDBRANCH   1   9
BRANCH   6  12
ATOM     12  C   UNL     1       3.099   5.202  -4.336  0.00  0.00    +0.389 C 
ATOM     13  O   UNL     1       3.648   5.084  -3.055  0.00  0.00    -0.241 OA
ATOM     14  O   UNL     1       3.405   4.265  -5.133  0.00  0.00    -0.241 OA
ENDBRANCH   6  12
BRANCH   5  15
ATOM     15  N   UNL     1       2.410   7.299  -6.190  0.00  0.00    -0.229 NA
BRANCH  15  16
ATOM     16  C   UNL     1       2.434   7.439  -7.641  0.00  0.00    +0.176 C 
BRANCH  16  17
ATOM     17  C   UNL     1       3.179   6.327  -8.289  0.00  0.00    +0.145 A 
ATOM     18  O   UNL     1       2.745   5.078  -8.252  0.00  0.00    -0.453 OA
ATOM     19  C   UNL     1       3.556   4.304  -8.940  0.00  0.00    +0.179 A 
ATOM     20  C   UNL     1       4.513   5.097  -9.560  0.00  0.00    +0.043 A 
ATOM     21  C   UNL     1       4.090   6.400  -9.336  0.00  0.00    +0.038 A 
ENDBRANCH  16  17
ENDBRANCH  15  16
ENDBRANCH   5  15
TORSDOF 5
ENDMDL
MODEL 2
REMARK VINA RESULT:      -6.7      4.867      8.317
REMARK  Name = 
REMARK  5 active torsions:
REMARK  status: ('A' for Active; 'I' for Inactive)
REMARK    1  A    between atoms: S_2  and  C_5
REMARK    2  A    between atoms: C_7  and  C_8
REMARK    3  A    between atoms: C_11  and  N_12
REMARK    4  A    between atoms: N_12  and  C_13
REMARK    5  A    between atoms: C_13  and  C_14
REMARK                            x       y       z     vdW  Elec       q    Type
REMARK                         _______ _______ _______ _____ _____    ______ ____
ROOT
ATOM      1  C   UNL     1       5.036   5.759 -11.279  0.00  0.00    +0.136 A 
ATOM      2  C   UNL     1       5.241   5.947  -9.919  0.00  0.00    +0.078 A 
ATOM      3 CL   UNL     1       6.794   5.409  -9.297  0.00  0.00    -0.081 Cl
ATOM      4  C   UNL     1       4.246   6.445  -9.086  0.00  0.00    +0.029 A 
ATOM      5  C   UNL     1       2.957   6.514  -9.602  0.00  0.00    +0.073 A 
ATOM      6  C   UNL     1       2.657   5.955 -10.839  0.00  0.00    +0.096 A 
ATOM      7  C   UNL     1       3.714   5.699 -11.704  0.00  0.00    +0.029 A 
ENDROOT
BRANCH   1   9
ATOM      8  N   UNL     1       7.409   4.794 -12.569  0.00  0.00    +0.039 NA
ATOM      9  S   UNL     1       6.352   6.148 -12.373  0.00  0.00    +0.094 S 
ATOM     10  O   UNL     1       5.808   6.523 -13.733  0.00  0.00    -0.150 OA
ATOM     11  O   UNL     1       7.130   7.277 -11.791  0.00  0.00    -0.150 OA
ENDBRANCH   1   9
BRANCH   6  12
ATOM     12  C   UNL     1       1.325   5.397 -11.101  0.00  0.00    +0.389 C 
ATOM     13  O   UNL     1       0.842   5.487 -12.411  0.00  0.00    -0.241 OA
ATOM     14  O   UNL     1       0.975   4.351 -10.477  0.00  0.00    -0.241 OA
ENDBRANCH   6  12
BRANCH   5  15
ATOM     15  N   UNL     1       1.911   7.229  -8.954  0.00  0.00    -0.229 NA
BRANCH  15  16
ATOM     16  C   UNL     1       1.918   7.363  -7.503  0.00  0.00    +0.176 C 
BRANCH  16  17
ATOM     17  C   UNL     1       0.838   6.559  -6.870  0.00  0.00    +0.145 A 
ATOM     18  O   UNL     1       0.270   6.922  -5.732  0.00  0.00    -0.453 OA
ATOM     19  C   UNL     1      -0.683   6.071  -5.418  0.00  0.00    +0.179 A 
ATOM     20  C   UNL     1      -0.832   5.163  -6.459  0.00  0.00    +0.043 A 
ATOM     21  C   UNL     1      -0.029   5.657  -7.477  0.00  0.00    +0.038 A 
ENDBRANCH  16  17
ENDBRANCH  15  16
ENDBRANCH   5  15
TORSDOF 5
ENDMDL
MODEL 3
REMARK VINA RESULT:      -6.7      2.831      4.449
REMARK  Name = 
REMARK  5 active torsions:
REMARK  status: ('A' for Active; 'I' for Inactive)
REMARK    1  A    between atoms: S_2  and  C_5
REMARK    2  A    between atoms: C_7  and  C_8
REMARK    3  A    between atoms: C_11  and  N_12
REMARK    4  A    between atoms: N_12  and  C_13
REMARK    5  A    between atoms: C_13  and  C_14
REMARK                            x       y       z     vdW  Elec       q    Type
REMARK                         _______ _______ _______ _____ _____    ______ ____
ROOT
ATOM      1  C   UNL     1       1.835   5.889  -2.208  0.00  0.00    +0.136 A 
ATOM      2  C   UNL     1       2.247   6.652  -3.291  0.00  0.00    +0.078 A 
ATOM      3 CL   UNL     1       3.678   7.639  -3.032  0.00  0.00    -0.081 Cl
ATOM      4  C   UNL     1       1.521   6.704  -4.475  0.00  0.00    +0.029 A 
ATOM      5  C   UNL     1       0.238   6.170  -4.460  0.00  0.00    +0.073 A 
ATOM      6  C   UNL     1      -0.344   5.753  -3.269  0.00  0.00    +0.096 A 
ATOM      7  C   UNL     1       0.499   5.507  -2.192  0.00  0.00    +0.029 A 
ENDROOT
BRANCH   1   9
ATOM      8  N   UNL     1       3.734   6.062  -0.066  0.00  0.00    +0.039 NA
ATOM      9  S   UNL     1       3.061   5.038  -1.285  0.00  0.00    +0.094 S 
ATOM     10  O   UNL     1       2.459   3.828  -0.606  0.00  0.00    -0.150 OA
ATOM     11  O   UNL     1       4.151   4.628  -2.215  0.00  0.00    -0.150 OA
ENDBRANCH   1   9
BRANCH   6  12
ATOM     12  C   UNL     1      -1.795   5.851  -3.074  0.00  0.00    +0.389 C 
ATOM     13  O   UNL     1      -2.444   4.731  -2.541  0.00  0.00    -0.241 OA
ATOM     14  O   UNL     1      -2.284   6.965  -2.721  0.00  0.00    -0.241 OA
ENDBRANCH   6  12
BRANCH   5  15
ATOM     15  N   UNL     1      -0.506   5.932  -5.651  0.00  0.00    -0.229 NA
BRANCH  15  16
ATOM     16  C   UNL     1       0.005   5.001  -6.648  0.00  0.00    +0.176 C 
BRANCH  16  17
ATOM     17  C   UNL     1       0.424   5.701  -7.892  0.00  0.00    +0.145 A 
ATOM     18  O   UNL     1       1.559   6.376  -7.966  0.00  0.00    -0.453 OA
ATOM     19  C   UNL     1       1.714   6.854  -9.182  0.00  0.00    +0.179 A 
ATOM     20  C   UNL     1       0.687   6.374  -9.985  0.00  0.00    +0.043 A 
ATOM     21  C   UNL     1       0.032   5.437  -9.199  0.00  0.00    +0.038 A 
ENDBRANCH  16  17
ENDBRANCH  15  16
ENDBRANCH   5  15
TORSDOF 5
ENDMDL
MODEL 4
REMARK VINA RESULT:      -6.5      3.357      4.410
REMARK  Name = 
REMARK  5 active torsions:
REMARK  status: ('A' for Active; 'I' for Inactive)
REMARK    1  A    between atoms: S_2  and  C_5
REMARK    2  A    between atoms: C_7  and  C_8
REMARK    3  A    between atoms: C_11  and  N_12
REMARK    4  A    between atoms: N_12  and  C_13
REMARK    5  A    between atoms: C_13  and  C_14
REMARK                            x       y       z     vdW  Elec       q    Type
REMARK                         _______ _______ _______ _____ _____    ______ ____
ROOT
ATOM      1  C   UNL     1       3.060   6.740  -3.983  0.00  0.00    +0.136 A 
ATOM      2  C   UNL     1       4.391   6.686  -4.372  0.00  0.00    +0.078 A 
ATOM      3 CL   UNL     1       5.559   7.249  -3.185  0.00  0.00    -0.081 Cl
ATOM      4  C   UNL     1       4.770   6.298  -5.652  0.00  0.00    +0.029 A 
ATOM      5  C   UNL     1       3.770   6.206  -6.612  0.00  0.00    +0.073 A 
ATOM      6  C   UNL     1       2.479   6.642  -6.337  0.00  0.00    +0.096 A 
ATOM      7  C   UNL     1       2.117   6.786  -5.003  0.00  0.00    +0.029 A 
ENDROOT
BRANCH   1   9
ATOM      8  N   UNL     1       3.632   4.868  -1.887  0.00  0.00    +0.039 NA
ATOM      9  S   UNL     1       2.654   6.212  -2.359  0.00  0.00    +0.094 S 
ATOM     10  O   UNL     1       2.884   7.335  -1.372  0.00  0.00    -0.150 OA
ATOM     11  O   UNL     1       1.225   5.788  -2.345  0.00  0.00    -0.150 OA
ENDBRANCH   1   9
BRANCH   6  12
ATOM     12  C   UNL     1       1.638   7.201  -7.403  0.00  0.00    +0.389 C 
ATOM     13  O   UNL     1       2.083   8.377  -8.015  0.00  0.00    -0.241 OA
ATOM     14  O   UNL     1       1.027   6.400  -8.172  0.00  0.00    -0.241 OA
ENDBRANCH   6  12
BRANCH   5  15
ATOM     15  N   UNL     1       3.977   5.584  -7.876  0.00  0.00    -0.229 NA
BRANCH  15  16
ATOM     16  C   UNL     1       5.286   5.033  -8.204  0.00  0.00    +0.176 C 
BRANCH  16  17
ATOM     17  C   UNL     1       5.917   5.752  -9.343  0.00  0.00    +0.145 A 
ATOM     18  O   UNL     1       5.247   6.627 -10.074  0.00  0.00    -0.453 OA
ATOM     19  C   UNL     1       6.045   7.153 -10.979  0.00  0.00    +0.179 A 
ATOM     20  C   UNL     1       7.336   6.689 -10.761  0.00  0.00    +0.043 A 
ATOM     21  C   UNL     1       7.266   6.004  -9.557  0.00  0.00    +0.038 A 
ENDBRANCH  16  17
ENDBRANCH  15  16
ENDBRANCH   5  15
TORSDOF 5
ENDMDL
MODEL 5
REMARK VINA RESULT:      -6.5      4.863      7.493
REMARK  Name = 
REMARK  5 active torsions:
REMARK  status: ('A' for Active; 'I' for Inactive)
REMARK    1  A    between atoms: S_2  and  C_5
REMARK    2  A    between atoms: C_7  and  C_8
REMARK    3  A    between atoms: C_11  and  N_12
REMARK    4  A    between atoms: N_12  and  C_13
REMARK    5  A    between atoms: C_13  and  C_14
REMARK                            x       y       z     vdW  Elec       q    Type
REMARK                         _______ _______ _______ _____ _____    ______ ____
ROOT
ATOM      1  C   UNL     1       2.201   6.231 -12.056  0.00  0.00    +0.136 A 
ATOM      2  C   UNL     1       1.462   6.546 -10.925  0.00  0.00    +0.078 A 
ATOM      3 CL   UNL     1      -0.151   7.180 -11.217  0.00  0.00    -0.081 Cl
ATOM      4  C   UNL     1       1.996   6.452  -9.645  0.00  0.00    +0.029 A 
ATOM      5  C   UNL     1       3.370   6.276  -9.540  0.00  0.00    +0.073 A 
ATOM      6  C   UNL     1       4.185   6.355 -10.663  0.00  0.00    +0.096 A 
ATOM      7  C   UNL     1       3.583   6.210 -11.907  0.00  0.00    +0.029 A 
ENDROOT
BRANCH   1   9
ATOM      8  N   UNL     1       2.529   4.535 -14.345  0.00  0.00    +0.039 NA
ATOM      9  S   UNL     1       1.390   5.387 -13.364  0.00  0.00    +0.094 S 
ATOM     10  O   UNL     1       0.403   4.386 -12.807  0.00  0.00    -0.150 OA
ATOM     11  O   UNL     1       0.692   6.393 -14.213  0.00  0.00    -0.150 OA
ENDBRANCH   1   9
BRANCH   6  12
ATOM     12  C   UNL     1       5.560   6.857 -10.553  0.00  0.00    +0.389 C 
ATOM     13  O   UNL     1       6.590   5.912 -10.610  0.00  0.00    -0.241 OA
ATOM     14  O   UNL     1       5.838   7.977 -11.076  0.00  0.00    -0.241 OA
ENDBRANCH   6  12
BRANCH   5  15
ATOM     15  N   UNL     1       4.004   5.915  -8.317  0.00  0.00    -0.229 NA
BRANCH  15  16
ATOM     16  C   UNL     1       3.214   5.813  -7.096  0.00  0.00    +0.176 C 
BRANCH  16  17
ATOM     17  C   UNL     1       3.979   6.270  -5.905  0.00  0.00    +0.145 A 
ATOM     18  O   UNL     1       3.872   7.501  -5.436  0.00  0.00    -0.453 OA
ATOM     19  C   UNL     1       4.610   7.631  -4.354  0.00  0.00    +0.179 A 
ATOM     20  C   UNL     1       5.141   6.391  -4.024  0.00  0.00    +0.043 A 
ATOM     21  C   UNL     1       4.512   5.498  -4.879  0.00  0.00    +0.038 A 
ENDBRANCH  16  17
ENDBRANCH  15  16
ENDBRANCH   5  15
TORSDOF 5
ENDMDL
MODEL 6
REMARK VINA RESULT:      -6.5      4.659      7.689
REMARK  Name = 
REMARK  5 active torsions:
REMARK  status: ('A' for Active; 'I' for Inactive)
REMARK    1  A    between atoms: S_2  and  C_5
REMARK    2  A    between atoms: C_7  and  C_8
REMARK    3  A    between atoms: C_11  and  N_12
REMARK    4  A    between atoms: N_12  and  C_13
REMARK    5  A    between atoms: C_13  and  C_14
REMARK                            x       y       z     vdW  Elec       q    Type
REMARK                         _______ _______ _______ _____ _____    ______ ____
ROOT
ATOM      1  C   UNL     1       2.061   6.124 -12.462  0.00  0.00    +0.136 A 
ATOM      2  C   UNL     1       1.043   6.651 -11.679  0.00  0.00    +0.078 A 
ATOM      3 CL   UNL     1      -0.260   7.445 -12.550  0.00  0.00    -0.081 Cl
ATOM      4  C   UNL     1       1.097   6.632 -10.290  0.00  0.00    +0.029 A 
ATOM      5  C   UNL     1       2.312   6.299  -9.704  0.00  0.00    +0.073 A 
ATOM      6  C   UNL     1       3.458   6.153 -10.477  0.00  0.00    +0.096 A 
ATOM      7  C   UNL     1       3.292   5.948 -11.841  0.00  0.00    +0.029 A 
ENDROOT
BRANCH   1   9
ATOM      8  N   UNL     1       1.171   6.342 -15.179  0.00  0.00    +0.039 NA
ATOM      9  S   UNL     1       1.614   5.249 -13.916  0.00  0.00    +0.094 S 
ATOM     10  O   UNL     1       2.777   4.412 -14.401  0.00  0.00    -0.150 OA
ATOM     11  O   UNL     1       0.442   4.384 -13.604  0.00  0.00    -0.150 OA
ENDBRANCH   1   9
BRANCH   6  12
ATOM     12  C   UNL     1       4.776   6.489  -9.927  0.00  0.00    +0.389 C 
ATOM     13  O   UNL     1       5.509   5.448  -9.347  0.00  0.00    -0.241 OA
ATOM     14  O   UNL     1       5.475   7.362 -10.524  0.00  0.00    -0.241 OA
ENDBRANCH   6  12
BRANCH   5  15
ATOM     15  N   UNL     1       2.436   5.999  -8.317  0.00  0.00    -0.229 NA
BRANCH  15  16
ATOM     16  C   UNL     1       1.685   4.888  -7.748  0.00  0.00    +0.176 C 
BRANCH  16  17
ATOM     17  C   UNL     1       0.535   5.360  -6.932  0.00  0.00    +0.145 A 
ATOM     18  O   UNL     1       0.670   6.298  -6.010  0.00  0.00    -0.453 OA
ATOM     19  C   UNL     1      -0.500   6.565  -5.472  0.00  0.00    +0.179 A 
ATOM     20  C   UNL     1      -1.479   5.852  -6.153  0.00  0.00    +0.043 A 
ATOM     21  C   UNL     1      -0.819   5.297  -7.240  0.00  0.00    +0.038 A 
ENDBRANCH  16  17
ENDBRANCH  15  16
ENDBRANCH   5  15
TORSDOF 5
ENDMDL
MODEL 7
REMARK VINA RESULT:      -6.4      3.150      5.689
REMARK  Name = 
REMARK  5 active torsions:
REMARK  status: ('A' for Active; 'I' for Inactive)
REMARK    1  A    between atoms: S_2  and  C_5
REMARK    2  A    between atoms: C_7  and  C_8
REMARK    3  A    between atoms: C_11  and  N_12
REMARK    4  A    between atoms: N_12  and  C_13
REMARK    5  A    between atoms: C_13  and  C_14
REMARK                            x       y       z     vdW  Elec       q    Type
REMARK                         _______ _______ _______ _____ _____    ______ ____
ROOT
ATOM      1  C   UNL     1       0.965   5.347  -8.328  0.00  0.00    +0.136 A 
ATOM      2  C   UNL     1       1.780   4.451  -7.650  0.00  0.00    +0.078 A 
ATOM      3 CL   UNL     1       2.723   3.361  -8.655  0.00  0.00    -0.081 Cl
ATOM      4  C   UNL     1       1.780   4.360  -6.263  0.00  0.00    +0.029 A 
ATOM      5  C   UNL     1       0.760   5.013  -5.581  0.00  0.00    +0.073 A 
ATOM      6  C   UNL     1      -0.299   5.591  -6.271  0.00  0.00    +0.096 A 
ATOM      7  C   UNL     1      -0.120   5.855  -7.623  0.00  0.00    +0.029 A 
ENDROOT
BRANCH   1   9
ATOM      8  N   UNL     1       3.221   6.745  -9.416  0.00  0.00    +0.039 NA
ATOM      9  S   UNL     1       1.627   6.160  -9.736  0.00  0.00    +0.094 S 
ATOM     10  O   UNL     1       1.700   5.203 -10.905  0.00  0.00    -0.150 OA
ATOM     11  O   UNL     1       0.752   7.321 -10.065  0.00  0.00    -0.150 OA
ENDBRANCH   1   9
BRANCH   6  12
ATOM     12  C   UNL     1      -1.636   5.651  -5.669  0.00  0.00    +0.389 C 
ATOM     13  O   UNL     1      -1.958   6.803  -4.943  0.00  0.00    -0.241 OA
ATOM     14  O   UNL     1      -2.606   5.132  -6.299  0.00  0.00    -0.241 OA
ENDBRANCH   6  12
BRANCH   5  15
ATOM     15  N   UNL     1       0.786   5.209  -4.171  0.00  0.00    -0.229 NA
BRANCH  15  16
ATOM     16  C   UNL     1       1.388   6.416  -3.620  0.00  0.00    +0.176 C 
BRANCH  16  17
ATOM     17  C   UNL     1       2.865   6.426  -3.796  0.00  0.00    +0.145 A 
ATOM     18  O   UNL     1       3.614   5.383  -3.479  0.00  0.00    -0.453 OA
ATOM     19  C   UNL     1       4.871   5.631  -3.777  0.00  0.00    +0.179 A 
ATOM     20  C   UNL     1       4.943   6.854  -4.432  0.00  0.00    +0.043 A 
ATOM     21  C   UNL     1       3.621   7.211  -4.658  0.00  0.00    +0.038 A 
ENDBRANCH  16  17
ENDBRANCH  15  16
ENDBRANCH   5  15
TORSDOF 5
ENDMDL
MODEL 8
REMARK VINA RESULT:      -6.4      3.755      5.631
REMARK  Name = 
REMARK  5 active torsions:
REMARK  status: ('A' for Active; 'I' for Inactive)
REMARK    1  A    between atoms: S_2  and  C_5
REMARK    2  A    between atoms: C_7  and  C_8
REMARK    3  A    between atoms: C_11  and  N_12
REMARK    4  A    between atoms: N_12  and  C_13
REMARK    5  A    between atoms: C_13  and  C_14
REMARK                            x       y       z     vdW  Elec       q    Type
REMARK                         _______ _______ _______ _____ _____    ______ ____
ROOT
ATOM      1  C   UNL     1       1.114   6.145  -7.917  0.00  0.00    +0.136 A 
ATOM      2  C   UNL     1       2.469   6.429  -7.814  0.00  0.00    +0.078 A 
ATOM      3 CL   UNL     1       2.971   7.234  -6.335  0.00  0.00    -0.081 Cl
ATOM      4  C   UNL     1       3.356   6.175  -8.853  0.00  0.00    +0.029 A 
ATOM      5  C   UNL     1       2.813   5.863 -10.094  0.00  0.00    +0.073 A 
ATOM      6  C   UNL     1       1.444   5.962 -10.315  0.00  0.00    +0.096 A 
ATOM      7  C   UNL     1       0.611   5.981  -9.203  0.00  0.00    +0.029 A 
ENDROOT
BRANCH   1   9
ATOM      8  N   UNL     1      -1.293   4.954  -6.911  0.00  0.00    +0.039 NA
ATOM      9  S   UNL     1       0.297   5.496  -6.506  0.00  0.00    +0.094 S 
ATOM     10  O   UNL     1       1.070   4.321  -5.949  0.00  0.00    -0.150 OA
ATOM     11  O   UNL     1       0.185   6.578  -5.487  0.00  0.00    -0.150 OA
ENDBRANCH   1   9
BRANCH   6  12
ATOM     12  C   UNL     1       0.928   6.321 -11.641  0.00  0.00    +0.389 C 
ATOM     13  O   UNL     1       0.553   5.270 -12.485  0.00  0.00    -0.241 OA
ATOM     14  O   UNL     1       0.222   7.368 -11.751  0.00  0.00    -0.241 OA
ENDBRANCH   6  12
BRANCH   5  15
ATOM     15  N   UNL     1       3.596   5.341 -11.162  0.00  0.00    -0.229 NA
BRANCH  15  16
ATOM     16  C   UNL     1       4.448   6.233 -11.938  0.00  0.00    +0.176 C 
BRANCH  16  17
ATOM     17  C   UNL     1       5.891   5.958 -11.704  0.00  0.00    +0.145 A 
ATOM     18  O   UNL     1       6.563   5.084 -12.434  0.00  0.00    -0.453 OA
ATOM     19  C   UNL     1       7.824   5.066 -12.058  0.00  0.00    +0.179 A 
ATOM     20  C   UNL     1       8.021   6.062 -11.110  0.00  0.00    +0.043 A 
ATOM     21  C   UNL     1       6.834   6.779 -11.098  0.00  0.00    +0.038 A 
ENDBRANCH  16  17
ENDBRANCH  15  16
ENDBRANCH   5  15
TORSDOF 5
ENDMDL
MODEL 9
REMARK VINA RESULT:      -6.4      2.783      3.987
REMARK  Name = 
REMARK  5 active torsions:
REMARK  status: ('A' for Active; 'I' for Inactive)
REMARK    1  A    between atoms: S_2  and  C_5
REMARK    2  A    between atoms: C_7  and  C_8
REMARK    3  A    between atoms: C_11  and  N_12
REMARK    4  A    between atoms: N_12  and  C_13
REMARK    5  A    between atoms: C_13  and  C_14
REMARK                            x       y       z     vdW  Elec       q    Type
REMARK                         _______ _______ _______ _____ _____    ______ ____
ROOT
ATOM      1  C   UNL     1       2.329   6.276  -2.490  0.00  0.00    +0.136 A 
ATOM      2  C   UNL     1       3.247   6.968  -3.268  0.00  0.00    +0.078 A 
ATOM      3 CL   UNL     1       4.527   7.791  -2.390  0.00  0.00    -0.081 Cl
ATOM      4  C   UNL     1       3.109   7.080  -4.646  0.00  0.00    +0.029 A 
ATOM      5  C   UNL     1       1.893   6.694  -5.199  0.00  0.00    +0.073 A 
ATOM      6  C   UNL     1       0.815   6.368  -4.385  0.00  0.00    +0.096 A 
ATOM      7  C   UNL     1       1.082   6.047  -3.060  0.00  0.00    +0.029 A 
ENDROOT
BRANCH   1   9
ATOM      8  N   UNL     1       3.355   6.308   0.188  0.00  0.00    +0.039 NA
ATOM      9  S   UNL     1       2.940   5.308  -1.159  0.00  0.00    +0.094 S 
ATOM     10  O   UNL     1       1.889   4.318  -0.707  0.00  0.00    -0.150 OA
ATOM     11  O   UNL     1       4.166   4.596  -1.618  0.00  0.00    -0.150 OA
ENDBRANCH   1   9
BRANCH   6  12
ATOM     12  C   UNL     1      -0.559   6.631  -4.827  0.00  0.00    +0.389 C 
ATOM     13  O   UNL     1      -1.499   5.614  -4.630  0.00  0.00    -0.241 OA
ATOM     14  O   UNL     1      -1.017   7.808  -4.709  0.00  0.00    -0.241 OA
ENDBRANCH   6  12
BRANCH   5  15
ATOM     15  N   UNL     1       1.711   6.521  -6.600  0.00  0.00    -0.229 NA
BRANCH  15  16
ATOM     16  C   UNL     1       2.493   7.319  -7.535  0.00  0.00    +0.176 C 
BRANCH  16  17
ATOM     17  C   UNL     1       3.452   6.482  -8.306  0.00  0.00    +0.145 A 
ATOM     18  O   UNL     1       3.760   6.751  -9.564  0.00  0.00    -0.453 OA
ATOM     19  C   UNL     1       4.662   5.894  -9.993  0.00  0.00    +0.179 A 
ATOM     20  C   UNL     1       5.056   5.090  -8.932  0.00  0.00    +0.043 A 
ATOM     21  C   UNL     1       4.459   5.660  -7.816  0.00  0.00    +0.038 A 
ENDBRANCH  16  17
ENDBRANCH  15  16
ENDBRANCH   5  15
TORSDOF 5
ENDMDL
