MODEL 1
REMARK VINA RESULT:      -8.0      0.000      0.000
REMARK  Name = 
REMARK  6 active torsions:
REMARK  status: ('A' for Active; 'I' for Inactive)
REMARK    1  A    between atoms: C_2  and  O_3
REMARK    2  A    between atoms: O_3  and  C_4
REMARK    3  A    between atoms: C_7  and  C_8
REMARK    4  A    between atoms: C_8  and  C_9
REMARK    5  A    between atoms: C_11  and  C_12
REMARK    6  A    between atoms: C_14  and  C_15
REMARK                            x       y       z     vdW  Elec       q    Type
REMARK                         _______ _______ _______ _____ _____    ______ ____
ROOT
ATOM      1  C   UNL     1       2.316   5.958  -4.637  0.00  0.00    -0.007 A 
ATOM      2  C   UNL     1       2.862   6.084  -3.362  0.00  0.00    +0.054 A 
ATOM      3 CL   UNL     1       4.567   5.682  -3.095  0.00  0.00    -0.083 Cl
ATOM      4  C   UNL     1       2.129   5.679  -2.299  0.00  0.00    +0.011 A 
ATOM      5  C   UNL     1       0.844   5.443  -2.569  0.00  0.00    -0.001 A 
ATOM      6  C   UNL     1       0.147   5.760  -3.786  0.00  0.00    +0.007 A 
ATOM      7  C   UNL     1       1.073   5.317  -4.706  0.00  0.00    -0.005 A 
ENDROOT
BRANCH   6   8
ATOM      8  C   UNL     1      -1.178   4.955  -3.312  0.00  0.00    +0.170 C 
ATOM      9  C   UNL     1      -1.475   6.039  -1.959  0.00  0.00    +0.216 C 
ATOM     10  O   UNL     1      -2.662   5.239  -1.534  0.00  0.00    -0.217 OA
ATOM     11  C   UNL     1      -2.409   7.210  -2.747  0.00  0.00    +0.218 C 
ATOM     12  O   UNL     1      -1.779   8.293  -1.911  0.00  0.00    -0.217 OA
ATOM     13  C   UNL     1      -1.324   7.535  -4.015  0.00  0.00    +0.214 C 
ATOM     14  O   UNL     1      -2.043   8.785  -4.390  0.00  0.00    -0.218 OA
ATOM     15  C   UNL     1      -2.351   6.568  -4.987  0.00  0.00    +0.181 C 
ATOM     16  O   UNL     1      -2.299   5.374  -4.157  0.00  0.00    -0.346 OA
BRANCH  15  17
ATOM     17  C   UNL     1      -1.201   6.034  -6.043  0.00  0.00    +0.214 C 
ATOM     18  O   UNL     1      -1.869   5.098  -6.787  0.00  0.00    -0.218 OA
ENDBRANCH  15  17
ENDBRANCH   6   8
BRANCH   1  19
ATOM     19  C   UNL     1       2.955   6.898  -5.514  0.00  0.00    +0.053 C 
BRANCH  19  23
ATOM     20  C   UNL     1       2.232   5.506  -9.140  0.00  0.00    +0.139 A 
ATOM     21  C   UNL     1       1.702   6.765  -8.859  0.00  0.00    +0.037 A 
ATOM     22  C   UNL     1       2.167   7.336  -7.672  0.00  0.00    -0.001 A 
ATOM     23  C   UNL     1       3.147   6.680  -6.896  0.00  0.00    -0.018 A 
ATOM     24  C   UNL     1       4.061   6.177  -7.790  0.00  0.00    -0.001 A 
ATOM     25  C   UNL     1       3.617   5.522  -8.957  0.00  0.00    +0.037 A 
BRANCH  20  26
ATOM     26  O   UNL     1       1.543   4.761 -10.056  0.00  0.00    -0.475 OA
BRANCH  26  28
ATOM     27  C   UNL     1       0.214   5.044 -11.896  0.00  0.00    +0.051 C 
ATOM     28  C   UNL     1       0.224   4.886 -10.462  0.00  0.00    +0.206 C 
ENDBRANCH  26  28
ENDBRANCH  20  26
ENDBRANCH  19  23
ENDBRANCH   1  19
TORSDOF 6
ENDMDL
MODEL 2
REMARK VINA RESULT:      -7.9      1.525      2.363
REMARK  Name = 
REMARK  6 active torsions:
REMARK  status: ('A' for Active; 'I' for Inactive)
REMARK    1  A    between atoms: C_2  and  O_3
REMARK    2  A    between atoms: O_3  and  C_4
REMARK    3  A    between atoms: C_7  and  C_8
REMARK    4  A    between atoms: C_8  and  C_9
REMARK    5  A    between atoms: C_11  and  C_12
REMARK    6  A    between atoms: C_14  and  C_15
REMARK                            x       y       z     vdW  Elec       q    Type
REMARK                         _______ _______ _______ _____ _____    ______ ____
ROOT
ATOM      1  C   UNL     1       2.229   5.893  -4.855  0.00  0.00    -0.007 A 
ATOM      2  C   UNL     1       2.855   6.011  -3.615  0.00  0.00    +0.054 A 
ATOM      3 CL   UNL     1       4.564   5.576  -3.452  0.00  0.00    -0.083 Cl
ATOM      4  C   UNL     1       2.180   5.621  -2.509  0.00  0.00    +0.011 A 
ATOM      5  C   UNL     1       0.876   5.409  -2.700  0.00  0.00    -0.001 A 
ATOM      6  C   UNL     1       0.113   5.738  -3.874  0.00  0.00    +0.007 A 
ATOM      7  C   UNL     1       0.972   5.276  -4.847  0.00  0.00    -0.005 A 
ENDROOT
BRANCH   6   8
ATOM      8  C   UNL     1      -1.196   4.959  -3.318  0.00  0.00    +0.170 C 
ATOM      9  C   UNL     1      -1.389   6.049  -1.952  0.00  0.00    +0.216 C 
ATOM     10  O   UNL     1      -2.563   5.272  -1.453  0.00  0.00    -0.217 OA
ATOM     11  C   UNL     1      -2.347   7.238  -2.683  0.00  0.00    +0.218 C 
ATOM     12  O   UNL     1      -1.645   8.308  -1.888  0.00  0.00    -0.217 OA
ATOM     13  C   UNL     1      -1.335   7.541  -4.015  0.00  0.00    +0.214 C 
ATOM     14  O   UNL     1      -2.051   8.804  -4.348  0.00  0.00    -0.218 OA
ATOM     15  C   UNL     1      -2.437   6.594  -4.921  0.00  0.00    +0.181 C 
ATOM     16  O   UNL     1      -2.359   5.399  -4.094  0.00  0.00    -0.346 OA
BRANCH  15  17
ATOM     17  C   UNL     1      -1.365   6.037  -6.044  0.00  0.00    +0.214 C 
ATOM     18  O   UNL     1      -2.092   5.105  -6.737  0.00  0.00    -0.218 OA
ENDBRANCH  15  17
ENDBRANCH   6   8
BRANCH   1  19
ATOM     19  C   UNL     1       2.832   6.820  -5.771  0.00  0.00    +0.053 C 
BRANCH  19  23
ATOM     20  C   UNL     1       4.662   5.980  -9.171  0.00  0.00    +0.139 A 
ATOM     21  C   UNL     1       4.135   4.888  -8.481  0.00  0.00    +0.037 A 
ATOM     22  C   UNL     1       3.293   5.226  -7.419  0.00  0.00    -0.001 A 
ATOM     23  C   UNL     1       2.979   6.576  -7.155  0.00  0.00    -0.018 A 
ATOM     24  C   UNL     1       2.764   7.160  -8.380  0.00  0.00    -0.001 A 
ATOM     25  C   UNL     1       3.647   6.900  -9.448  0.00  0.00    +0.037 A 
BRANCH  20  26
ATOM     26  O   UNL     1       5.757   5.723  -9.947  0.00  0.00    -0.475 OA
BRANCH  26  28
ATOM     27  C   UNL     1       7.659   6.930 -10.341  0.00  0.00    +0.051 C 
ATOM     28  C   UNL     1       7.099   5.818  -9.613  0.00  0.00    +0.206 C 
ENDBRANCH  26  28
ENDBRANCH  20  26
ENDBRANCH  19  23
ENDBRANCH   1  19
TORSDOF 6
ENDMDL
MODEL 3
REMARK VINA RESULT:      -7.9      4.308      6.189
REMARK  Name = 
REMARK  6 active torsions:
REMARK  status: ('A' for Active; 'I' for Inactive)
REMARK    1  A    between atoms: C_2  and  O_3
REMARK    2  A    between atoms: O_3  and  C_4
REMARK    3  A    between atoms: C_7  and  C_8
REMARK    4  A    between atoms: C_8  and  C_9
REMARK    5  A    between atoms: C_11  and  C_12
REMARK    6  A    between atoms: C_14  and  C_15
REMARK                            x       y       z     vdW  Elec       q    Type
REMARK                         _______ _______ _______ _____ _____    ______ ____
ROOT
ATOM      1  C   UNL     1       4.376   6.160  -9.420  0.00  0.00    -0.007 A 
ATOM      2  C   UNL     1       3.609   5.385 -10.288  0.00  0.00    +0.054 A 
ATOM      3 CL   UNL     1       3.987   5.371 -12.018  0.00  0.00    -0.083 Cl
ATOM      4  C   UNL     1       2.267   5.356 -10.117  0.00  0.00    +0.011 A 
ATOM      5  C   UNL     1       1.844   5.870  -8.960  0.00  0.00    -0.001 A 
ATOM      6  C   UNL     1       2.658   6.251  -7.838  0.00  0.00    +0.007 A 
ATOM      7  C   UNL     1       3.659   6.930  -8.497  0.00  0.00    -0.005 A 
ENDROOT
BRANCH   6   8
ATOM      8  C   UNL     1       1.398   6.928  -7.073  0.00  0.00    +0.170 C 
ATOM      9  C   UNL     1       0.531   5.403  -6.940  0.00  0.00    +0.216 C 
ATOM     10  O   UNL     1      -0.626   6.079  -6.280  0.00  0.00    -0.217 OA
ATOM     11  C   UNL     1       1.180   4.845  -5.480  0.00  0.00    +0.218 C 
ATOM     12  O   UNL     1       1.148   3.430  -5.994  0.00  0.00    -0.217 OA
ATOM     13  C   UNL     1       2.820   4.981  -5.907  0.00  0.00    +0.214 C 
ATOM     14  O   UNL     1       3.251   4.140  -4.756  0.00  0.00    -0.218 OA
ATOM     15  C   UNL     1       2.830   6.408  -4.960  0.00  0.00    +0.181 C 
ATOM     16  O   UNL     1       1.747   7.085  -5.659  0.00  0.00    -0.346 OA
BRANCH  15  17
ATOM     17  C   UNL     1       4.021   7.199  -5.782  0.00  0.00    +0.214 C 
ATOM     18  O   UNL     1       4.684   7.880  -4.795  0.00  0.00    -0.218 OA
ENDBRANCH  15  17
ENDBRANCH   6   8
BRANCH   1  19
ATOM     19  C   UNL     1       5.718   5.647  -9.399  0.00  0.00    +0.053 C 
BRANCH  19  23
ATOM     20  C   UNL     1       7.288   6.536 -12.914  0.00  0.00    +0.139 A 
ATOM     21  C   UNL     1       6.842   7.621 -12.159  0.00  0.00    +0.037 A 
ATOM     22  C   UNL     1       6.517   7.310 -10.836  0.00  0.00    -0.001 A 
ATOM     23  C   UNL     1       6.710   6.004 -10.338  0.00  0.00    -0.018 A 
ATOM     24  C   UNL     1       7.921   5.586 -10.837  0.00  0.00    -0.001 A 
ATOM     25  C   UNL     1       8.241   5.813 -12.191  0.00  0.00    +0.037 A 
BRANCH  20  26
ATOM     26  O   UNL     1       7.252   6.699 -14.271  0.00  0.00    -0.475 OA
BRANCH  26  28
ATOM     27  C   UNL     1       6.866   7.735 -16.273  0.00  0.00    +0.051 C 
ATOM     28  C   UNL     1       6.258   7.269 -15.051  0.00  0.00    +0.206 C 
ENDBRANCH  26  28
ENDBRANCH  20  26
ENDBRANCH  19  23
ENDBRANCH   1  19
TORSDOF 6
ENDMDL
MODEL 4
REMARK VINA RESULT:      -7.9      3.104      6.664
REMARK  Name = 
REMARK  6 active torsions:
REMARK  status: ('A' for Active; 'I' for Inactive)
REMARK    1  A    between atoms: C_2  and  O_3
REMARK    2  A    between atoms: O_3  and  C_4
REMARK    3  A    between atoms: C_7  and  C_8
REMARK    4  A    between atoms: C_8  and  C_9
REMARK    5  A    between atoms: C_11  and  C_12
REMARK    6  A    between atoms: C_14  and  C_15
REMARK                            x       y       z     vdW  Elec       q    Type
REMARK                         _______ _______ _______ _____ _____    ______ ____
ROOT
ATOM      1  C   UNL     1       0.099   5.426  -6.302  0.00  0.00    -0.007 A 
ATOM      2  C   UNL     1       0.783   5.710  -7.482  0.00  0.00    +0.054 A 
ATOM      3 CL   UNL     1      -0.008   5.430  -9.042  0.00  0.00    -0.083 Cl
ATOM      4  C   UNL     1       2.091   5.374  -7.571  0.00  0.00    +0.011 A 
ATOM      5  C   UNL     1       2.659   5.043  -6.409  0.00  0.00    -0.001 A 
ATOM      6  C   UNL     1       2.090   5.198  -5.098  0.00  0.00    +0.007 A 
ATOM      7  C   UNL     1       0.821   4.715  -5.336  0.00  0.00    -0.005 A 
ENDROOT
BRANCH   6   8
ATOM      8  C   UNL     1       3.303   4.373  -4.405  0.00  0.00    +0.170 C 
ATOM      9  C   UNL     1       4.511   5.563  -4.871  0.00  0.00    +0.216 C 
ATOM     10  O   UNL     1       5.602   4.747  -4.260  0.00  0.00    -0.217 OA
ATOM     11  C   UNL     1       4.396   6.605  -3.542  0.00  0.00    +0.218 C 
ATOM     12  O   UNL     1       4.634   7.793  -4.438  0.00  0.00    -0.217 OA
ATOM     13  C   UNL     1       2.717   6.864  -3.616  0.00  0.00    +0.214 C 
ATOM     14  O   UNL     1       2.797   8.035  -2.698  0.00  0.00    -0.218 OA
ATOM     15  C   UNL     1       2.606   5.759  -2.313  0.00  0.00    +0.181 C 
ATOM     16  O   UNL     1       3.288   4.652  -2.968  0.00  0.00    -0.346 OA
BRANCH  15  17
ATOM     17  C   UNL     1       1.095   5.187  -2.649  0.00  0.00    +0.214 C 
ATOM     18  O   UNL     1       0.722   4.579  -1.480  0.00  0.00    -0.218 OA
ENDBRANCH  15  17
ENDBRANCH   6   8
BRANCH   1  19
ATOM     19  C   UNL     1      -1.030   6.307  -6.193  0.00  0.00    +0.053 C 
BRANCH  19  23
ATOM     20  C   UNL     1      -2.185   6.555  -2.423  0.00  0.00    +0.139 A 
ATOM     21  C   UNL     1      -2.191   7.753  -3.138  0.00  0.00    +0.037 A 
ATOM     22  C   UNL     1      -2.014   7.605  -4.516  0.00  0.00    -0.001 A 
ATOM     23  C   UNL     1      -1.914   6.321  -5.093  0.00  0.00    -0.018 A 
ATOM     24  C   UNL     1      -2.860   5.550  -4.461  0.00  0.00    -0.001 A 
ATOM     25  C   UNL     1      -3.004   5.618  -3.061  0.00  0.00    +0.037 A 
BRANCH  20  26
ATOM     26  O   UNL     1      -1.974   6.664  -1.077  0.00  0.00    -0.475 OA
BRANCH  26  28
ATOM     27  C   UNL     1      -1.949   8.093   0.708  0.00  0.00    +0.051 C 
ATOM     28  C   UNL     1      -1.180   7.572  -0.395  0.00  0.00    +0.206 C 
ENDBRANCH  26  28
ENDBRANCH  20  26
ENDBRANCH  19  23
ENDBRANCH   1  19
TORSDOF 6
ENDMDL
MODEL 5
REMARK VINA RESULT:      -7.8      4.879      7.042
REMARK  Name = 
REMARK  6 active torsions:
REMARK  status: ('A' for Active; 'I' for Inactive)
REMARK    1  A    between atoms: C_2  and  O_3
REMARK    2  A    between atoms: O_3  and  C_4
REMARK    3  A    between atoms: C_7  and  C_8
REMARK    4  A    between atoms: C_8  and  C_9
REMARK    5  A    between atoms: C_11  and  C_12
REMARK    6  A    between atoms: C_14  and  C_15
REMARK                            x       y       z     vdW  Elec       q    Type
REMARK                         _______ _______ _______ _____ _____    ______ ____
ROOT
ATOM      1  C   UNL     1       5.435   5.716 -10.792  0.00  0.00    -0.007 A 
ATOM      2  C   UNL     1       6.537   5.754  -9.940  0.00  0.00    +0.054 A 
ATOM      3 CL   UNL     1       8.149   5.386 -10.575  0.00  0.00    -0.083 Cl
ATOM      4  C   UNL     1       6.412   5.237  -8.695  0.00  0.00    +0.011 A 
ATOM      5  C   UNL     1       5.155   4.984  -8.323  0.00  0.00    -0.001 A 
ATOM      6  C   UNL     1       3.957   5.379  -9.012  0.00  0.00    +0.007 A 
ATOM      7  C   UNL     1       4.309   5.044 -10.302  0.00  0.00    -0.005 A 
ENDROOT
BRANCH   6   8
ATOM      8  C   UNL     1       3.022   4.494  -8.026  0.00  0.00    +0.170 C 
ATOM      9  C   UNL     1       3.574   5.336  -6.584  0.00  0.00    +0.216 C 
ATOM     10  O   UNL     1       2.731   4.466  -5.711  0.00  0.00    -0.217 OA
ATOM     11  C   UNL     1       2.463   6.613  -6.571  0.00  0.00    +0.218 C 
ATOM     12  O   UNL     1       3.526   7.548  -6.055  0.00  0.00    -0.217 OA
ATOM     13  C   UNL     1       2.737   7.153  -8.160  0.00  0.00    +0.214 C 
ATOM     14  O   UNL     1       2.032   8.441  -7.907  0.00  0.00    -0.218 OA
ATOM     15  C   UNL     1       1.277   6.352  -8.560  0.00  0.00    +0.181 C 
ATOM     16  O   UNL     1       1.663   5.037  -8.069  0.00  0.00    -0.346 OA
BRANCH  15  17
ATOM     17  C   UNL     1       1.647   6.010 -10.131  0.00  0.00    +0.214 C 
ATOM     18  O   UNL     1       0.639   5.165 -10.514  0.00  0.00    -0.218 OA
ENDBRANCH  15  17
ENDBRANCH   6   8
BRANCH   1  19
ATOM     19  C   UNL     1       5.576   6.747 -11.782  0.00  0.00    +0.053 C 
BRANCH  19  23
ATOM     20  C   UNL     1       5.984   7.496 -15.640  0.00  0.00    +0.139 A 
ATOM     21  C   UNL     1       7.077   6.888 -15.022  0.00  0.00    +0.037 A 
ATOM     22  C   UNL     1       6.825   6.418 -13.731  0.00  0.00    -0.001 A 
ATOM     23  C   UNL     1       5.532   6.512 -13.173  0.00  0.00    -0.018 A 
ATOM     24  C   UNL     1       4.661   6.175 -14.182  0.00  0.00    -0.001 A 
ATOM     25  C   UNL     1       4.845   6.702 -15.476  0.00  0.00    +0.037 A 
BRANCH  20  26
ATOM     26  O   UNL     1       6.271   8.290 -16.714  0.00  0.00    -0.475 OA
BRANCH  26  28
ATOM     27  C   UNL     1       6.282  10.356 -17.695  0.00  0.00    +0.051 C 
ATOM     28  C   UNL     1       5.463   9.221 -17.346  0.00  0.00    +0.206 C 
ENDBRANCH  26  28
ENDBRANCH  20  26
ENDBRANCH  19  23
ENDBRANCH   1  19
TORSDOF 6
ENDMDL
MODEL 6
REMARK VINA RESULT:      -7.7      3.272      6.852
REMARK  Name = 
REMARK  6 active torsions:
REMARK  status: ('A' for Active; 'I' for Inactive)
REMARK    1  A    between atoms: C_2  and  O_3
REMARK    2  A    between atoms: O_3  and  C_4
REMARK    3  A    between atoms: C_7  and  C_8
REMARK    4  A    between atoms: C_8  and  C_9
REMARK    5  A    between atoms: C_11  and  C_12
REMARK    6  A    between atoms: C_14  and  C_15
REMARK                            x       y       z     vdW  Elec       q    Type
REMARK                         _______ _______ _______ _____ _____    ______ ____
ROOT
ATOM      1  C   UNL     1      -0.561   5.386  -4.372  0.00  0.00    -0.007 A 
ATOM      2  C   UNL     1      -1.752   5.763  -4.989  0.00  0.00    +0.054 A 
ATOM      3 CL   UNL     1      -3.300   5.334  -4.243  0.00  0.00    -0.083 Cl
ATOM      4  C   UNL     1      -1.850   5.648  -6.334  0.00  0.00    +0.011 A 
ATOM      5  C   UNL     1      -0.690   5.432  -6.959  0.00  0.00    -0.001 A 
ATOM      6  C   UNL     1       0.625   5.508  -6.383  0.00  0.00    +0.007 A 
ATOM      7  C   UNL     1       0.406   4.818  -5.211  0.00  0.00    -0.005 A 
ENDROOT
BRANCH   6   8
ATOM      8  C   UNL     1       1.314   4.905  -7.722  0.00  0.00    +0.170 C 
ATOM      9  C   UNL     1       1.328   6.464  -8.537  0.00  0.00    +0.216 C 
ATOM     10  O   UNL     1       1.921   5.856  -9.765  0.00  0.00    -0.217 OA
ATOM     11  C   UNL     1       2.813   7.053  -7.978  0.00  0.00    +0.218 C 
ATOM     12  O   UNL     1       2.250   8.448  -7.916  0.00  0.00    -0.217 OA
ATOM     13  C   UNL     1       2.517   6.842  -6.316  0.00  0.00    +0.214 C 
ATOM     14  O   UNL     1       3.668   7.710  -5.941  0.00  0.00    -0.218 OA
ATOM     15  C   UNL     1       3.511   5.452  -6.433  0.00  0.00    +0.181 C 
ATOM     16  O   UNL     1       2.755   4.789  -7.486  0.00  0.00    -0.346 OA
BRANCH  15  17
ATOM     17  C   UNL     1       2.810   4.588  -5.215  0.00  0.00    +0.214 C 
ATOM     18  O   UNL     1       3.848   4.367  -4.349  0.00  0.00    -0.218 OA
ENDBRANCH  15  17
ENDBRANCH   6   8
BRANCH   1  19
ATOM     19  C   UNL     1      -0.451   6.068  -3.113  0.00  0.00    +0.053 C 
BRANCH  19  23
ATOM     20  C   UNL     1       2.701   6.072  -0.731  0.00  0.00    +0.139 A 
ATOM     21  C   UNL     1       1.600   6.801  -0.280  0.00  0.00    +0.037 A 
ATOM     22  C   UNL     1       0.428   6.591  -1.011  0.00  0.00    -0.001 A 
ATOM     23  C   UNL     1       0.398   5.653  -2.065  0.00  0.00    -0.018 A 
ATOM     24  C   UNL     1       1.103   4.562  -1.617  0.00  0.00    -0.001 A 
ATOM     25  C   UNL     1       2.331   4.742  -0.949  0.00  0.00    +0.037 A 
BRANCH  20  26
ATOM     26  O   UNL     1       3.922   6.516  -0.310  0.00  0.00    -0.475 OA
BRANCH  26  28
ATOM     27  C   UNL     1       4.567   7.261  -2.374  0.00  0.00    +0.051 C 
ATOM     28  C   UNL     1       4.808   7.365  -0.955  0.00  0.00    +0.206 C 
ENDBRANCH  26  28
ENDBRANCH  20  26
ENDBRANCH  19  23
ENDBRANCH   1  19
TORSDOF 6
ENDMDL
MODEL 7
REMARK VINA RESULT:      -7.4      2.499      3.673
REMARK  Name = 
REMARK  6 active torsions:
REMARK  status: ('A' for Active; 'I' for Inactive)
REMARK    1  A    between atoms: C_2  and  O_3
REMARK    2  A    between atoms: O_3  and  C_4
REMARK    3  A    between atoms: C_7  and  C_8
REMARK    4  A    between atoms: C_8  and  C_9
REMARK    5  A    between atoms: C_11  and  C_12
REMARK    6  A    between atoms: C_14  and  C_15
REMARK                            x       y       z     vdW  Elec       q    Type
REMARK                         _______ _______ _______ _____ _____    ______ ____
ROOT
ATOM      1  C   UNL     1       1.956   6.613  -0.979  0.00  0.00    -0.007 A 
ATOM      2  C   UNL     1       1.433   7.491  -0.031  0.00  0.00    +0.054 A 
ATOM      3 CL   UNL     1       2.283   7.729   1.505  0.00  0.00    -0.083 Cl
ATOM      4  C   UNL     1       0.097   7.491   0.185  0.00  0.00    +0.011 A 
ATOM      5  C   UNL     1      -0.614   6.830  -0.731  0.00  0.00    -0.001 A 
ATOM      6  C   UNL     1      -0.134   6.311  -1.983  0.00  0.00    +0.007 A 
ATOM      7  C   UNL     1       1.040   5.727  -1.558  0.00  0.00    -0.005 A 
ENDROOT
BRANCH   6   8
ATOM      8  C   UNL     1      -1.529   5.535  -2.268  0.00  0.00    +0.170 C 
ATOM      9  C   UNL     1      -2.442   7.029  -2.437  0.00  0.00    +0.216 C 
ATOM     10  O   UNL     1      -3.711   6.271  -2.649  0.00  0.00    -0.217 OA
ATOM     11  C   UNL     1      -2.204   7.310  -4.089  0.00  0.00    +0.218 C 
ATOM     12  O   UNL     1      -2.140   8.794  -3.840  0.00  0.00    -0.217 OA
ATOM     13  C   UNL     1      -0.506   7.219  -4.081  0.00  0.00    +0.214 C 
ATOM     14  O   UNL     1      -0.407   7.837  -5.433  0.00  0.00    -0.218 OA
ATOM     15  C   UNL     1      -0.702   5.648  -4.735  0.00  0.00    +0.181 C 
ATOM     16  O   UNL     1      -1.550   5.125  -3.674  0.00  0.00    -0.346 OA
BRANCH  15  17
ATOM     17  C   UNL     1       0.681   4.990  -4.122  0.00  0.00    +0.214 C 
ATOM     18  O   UNL     1       1.259   4.400  -5.215  0.00  0.00    -0.218 OA
ENDBRANCH  15  17
ENDBRANCH   6   8
BRANCH   1  19
ATOM     19  C   UNL     1       3.214   7.124  -1.444  0.00  0.00    +0.053 C 
BRANCH  19  23
ATOM     20  C   UNL     1       4.223   6.317  -5.178  0.00  0.00    +0.139 A 
ATOM     21  C   UNL     1       4.863   7.414  -4.602  0.00  0.00    +0.037 A 
ATOM     22  C   UNL     1       4.676   7.535  -3.223  0.00  0.00    -0.001 A 
ATOM     23  C   UNL     1       3.948   6.558  -2.510  0.00  0.00    -0.018 A 
ATOM     24  C   UNL     1       4.346   5.346  -3.019  0.00  0.00    -0.001 A 
ATOM     25  C   UNL     1       4.463   5.172  -4.413  0.00  0.00    +0.037 A 
BRANCH  20  26
ATOM     26  O   UNL     1       4.059   6.366  -6.534  0.00  0.00    -0.475 OA
BRANCH  26  28
ATOM     27  C   UNL     1       5.170   5.267  -8.203  0.00  0.00    +0.051 C 
ATOM     28  C   UNL     1       3.951   5.318  -7.434  0.00  0.00    +0.206 C 
ENDBRANCH  26  28
ENDBRANCH  20  26
ENDBRANCH  19  23
ENDBRANCH   1  19
TORSDOF 6
ENDMDL
MODEL 8
REMARK VINA RESULT:      -7.4      4.035      6.046
REMARK  Name = 
REMARK  6 active torsions:
REMARK  status: ('A' for Active; 'I' for Inactive)
REMARK    1  A    between atoms: C_2  and  O_3
REMARK    2  A    between atoms: O_3  and  C_4
REMARK    3  A    between atoms: C_7  and  C_8
REMARK    4  A    between atoms: C_8  and  C_9
REMARK    5  A    between atoms: C_11  and  C_12
REMARK    6  A    between atoms: C_14  and  C_15
REMARK                            x       y       z     vdW  Elec       q    Type
REMARK                         _______ _______ _______ _____ _____    ______ ____
ROOT
ATOM      1  C   UNL     1       0.670   8.281   0.989  0.00  0.00    -0.007 A 
ATOM      2  C   UNL     1      -0.381   9.179   1.162  0.00  0.00    +0.054 A 
ATOM      3 CL   UNL     1      -0.441  10.188   2.616  0.00  0.00    -0.083 Cl
ATOM      4  C   UNL     1      -1.633   8.782   0.834  0.00  0.00    +0.011 A 
ATOM      5  C   UNL     1      -1.690   7.653   0.124  0.00  0.00    -0.001 A 
ATOM      6  C   UNL     1      -0.584   6.955  -0.473  0.00  0.00    +0.007 A 
ATOM      7  C   UNL     1       0.309   6.993   0.576  0.00  0.00    -0.005 A 
ENDROOT
BRANCH   6   8
ATOM      8  C   UNL     1      -1.517   5.693  -0.878  0.00  0.00    +0.170 C 
ATOM      9  C   UNL     1      -2.260   6.546  -2.225  0.00  0.00    +0.216 C 
ATOM     10  O   UNL     1      -3.132   5.374  -2.532  0.00  0.00    -0.217 OA
ATOM     11  C   UNL     1      -1.141   6.170  -3.438  0.00  0.00    +0.218 C 
ATOM     12  O   UNL     1      -1.322   7.537  -4.045  0.00  0.00    -0.217 OA
ATOM     13  C   UNL     1       0.252   6.700  -2.618  0.00  0.00    +0.214 C 
ATOM     14  O   UNL     1       1.065   6.683  -3.866  0.00  0.00    -0.218 OA
ATOM     15  C   UNL     1       0.560   5.044  -2.310  0.00  0.00    +0.181 C 
ATOM     16  O   UNL     1      -0.708   4.752  -1.657  0.00  0.00    -0.346 OA
BRANCH  15  17
ATOM     17  C   UNL     1       1.384   5.242  -0.895  0.00  0.00    +0.214 C 
ATOM     18  O   UNL     1       1.949   4.012  -0.686  0.00  0.00    -0.218 OA
ENDBRANCH  15  17
ENDBRANCH   6   8
BRANCH   1  19
ATOM     19  C   UNL     1       1.896   9.018   0.856  0.00  0.00    +0.053 C 
BRANCH  19  23
ATOM     20  C   UNL     1       4.125   7.164  -1.829  0.00  0.00    +0.139 A 
ATOM     21  C   UNL     1       3.996   8.543  -1.997  0.00  0.00    +0.037 A 
ATOM     22  C   UNL     1       3.412   9.206  -0.915  0.00  0.00    -0.001 A 
ATOM     23  C   UNL     1       3.064   8.499   0.256  0.00  0.00    -0.018 A 
ATOM     24  C   UNL     1       4.103   7.632   0.495  0.00  0.00    -0.001 A 
ATOM     25  C   UNL     1       4.658   6.888  -0.566  0.00  0.00    +0.037 A 
BRANCH  20  26
ATOM     26  O   UNL     1       4.328   6.441  -2.970  0.00  0.00    -0.475 OA
BRANCH  26  28
ATOM     27  C   UNL     1       4.831   4.757  -4.433  0.00  0.00    +0.051 C 
ATOM     28  C   UNL     1       4.235   5.071  -3.158  0.00  0.00    +0.206 C 
ENDBRANCH  26  28
ENDBRANCH  20  26
ENDBRANCH  19  23
ENDBRANCH   1  19
TORSDOF 6
ENDMDL
MODEL 9
REMARK VINA RESULT:      -7.2      4.298      7.860
REMARK  Name = 
REMARK  6 active torsions:
REMARK  status: ('A' for Active; 'I' for Inactive)
REMARK    1  A    between atoms: C_2  and  O_3
REMARK    2  A    between atoms: O_3  and  C_4
REMARK    3  A    between atoms: C_7  and  C_8
REMARK    4  A    between atoms: C_8  and  C_9
REMARK    5  A    between atoms: C_11  and  C_12
REMARK    6  A    between atoms: C_14  and  C_15
REMARK                            x       y       z     vdW  Elec       q    Type
REMARK                         _______ _______ _______ _____ _____    ______ ____
ROOT
ATOM      1  C   UNL     1      -0.759   5.767  -2.635  0.00  0.00    -0.007 A 
ATOM      2  C   UNL     1      -1.065   6.731  -3.594  0.00  0.00    +0.054 A 
ATOM      3 CL   UNL     1      -2.677   6.756  -4.328  0.00  0.00    -0.083 Cl
ATOM      4  C   UNL     1      -0.135   7.032  -4.530  0.00  0.00    +0.011 A 
ATOM      5  C   UNL     1       1.086   6.558  -4.272  0.00  0.00    -0.001 A 
ATOM      6  C   UNL     1       1.534   5.955  -3.047  0.00  0.00    +0.007 A 
ATOM      7  C   UNL     1       0.470   5.117  -2.797  0.00  0.00    -0.005 A 
ENDROOT
BRANCH   6   8
ATOM      8  C   UNL     1       2.950   5.518  -3.706  0.00  0.00    +0.170 C 
ATOM      9  C   UNL     1       3.517   7.178  -3.834  0.00  0.00    +0.216 C 
ATOM     10  O   UNL     1       4.787   6.731  -4.480  0.00  0.00    -0.217 OA
ATOM     11  C   UNL     1       4.224   7.345  -2.305  0.00  0.00    +0.218 C 
ATOM     12  O   UNL     1       3.772   8.780  -2.239  0.00  0.00    -0.217 OA
ATOM     13  C   UNL     1       2.876   6.860  -1.390  0.00  0.00    +0.214 C 
ATOM     14  O   UNL     1       3.464   7.396  -0.130  0.00  0.00    -0.218 OA
ATOM     15  C   UNL     1       3.681   5.359  -1.211  0.00  0.00    +0.181 C 
ATOM     16  O   UNL     1       3.844   5.082  -2.631  0.00  0.00    -0.346 OA
BRANCH  15  17
ATOM     17  C   UNL     1       2.338   4.416  -1.054  0.00  0.00    +0.214 C 
ATOM     18  O   UNL     1       2.807   3.308  -0.399  0.00  0.00    -0.218 OA
ENDBRANCH  15  17
ENDBRANCH   6   8
BRANCH   1  19
ATOM     19  C   UNL     1      -1.580   5.984  -1.477  0.00  0.00    +0.053 C 
BRANCH  19  23
ATOM     20  C   UNL     1      -0.040   8.816   0.809  0.00  0.00    +0.139 A 
ATOM     21  C   UNL     1      -1.431   8.819   0.694  0.00  0.00    +0.037 A 
ATOM     22  C   UNL     1      -1.964   7.680   0.087  0.00  0.00    -0.001 A 
ATOM     23  C   UNL     1      -1.125   6.612  -0.297  0.00  0.00    -0.018 A 
ATOM     24  C   UNL     1      -0.225   6.454   0.729  0.00  0.00    -0.001 A 
ATOM     25  C   UNL     1       0.392   7.583   1.305  0.00  0.00    +0.037 A 
BRANCH  20  26
ATOM     26  O   UNL     1       0.542  10.031   1.036  0.00  0.00    -0.475 OA
BRANCH  26  28
ATOM     27  C   UNL     1       2.371  10.580   2.295  0.00  0.00    +0.051 C 
ATOM     28  C   UNL     1       1.880  10.381   0.953  0.00  0.00    +0.206 C 
ENDBRANCH  26  28
ENDBRANCH  20  26
ENDBRANCH  19  23
ENDBRANCH   1  19
TORSDOF 6
ENDMDL
