MODEL 1
REMARK VINA RESULT:      -8.2      0.000      0.000
REMARK  Name = 
REMARK  6 active torsions:
REMARK  status: ('A' for Active; 'I' for Inactive)
REMARK    1  A    between atoms: C_5  and  C_6
REMARK    2  A    between atoms: C_6  and  O_7
REMARK    3  A    between atoms: O_7  and  N_8
REMARK    4  A    between atoms: C_9  and  C_10
REMARK    5  A    between atoms: C_9  and  C_16
REMARK    6  A    between atoms: C_10  and  N_11
REMARK                            x       y       z     vdW  Elec       q    Type
REMARK                         _______ _______ _______ _____ _____    ______ ____
ROOT
ATOM      1  N   UNL     1       3.066   6.828  -8.399  0.00  0.00    -0.085 NA
ATOM      2  C   UNL     1       2.651   6.191  -7.355  0.00  0.00    +0.121 C 
ENDROOT
BRANCH   2   3
ATOM      3  C   UNL     1       1.249   6.403  -6.977  0.00  0.00    +0.029 A 
ATOM      4  C   UNL     1       0.263   5.604  -7.542  0.00  0.00    +0.060 A 
ATOM      5 CL   UNL     1       0.549   5.069  -9.195  0.00  0.00    -0.082 Cl
ATOM      6  C   UNL     1      -0.986   5.493  -6.961  0.00  0.00    +0.023 A 
ATOM      7  C   UNL     1      -1.302   6.283  -5.880  0.00  0.00    +0.059 A 
ATOM      8 CL   UNL     1      -2.939   6.780  -5.527  0.00  0.00    -0.082 Cl
ATOM      9  C   UNL     1      -0.281   6.953  -5.230  0.00  0.00    +0.011 A 
ATOM     10  C   UNL     1       0.999   6.923  -5.732  0.00  0.00    +0.003 A 
ENDBRANCH   2   3
BRANCH   1  11
ATOM     11  O   UNL     1       4.059   6.385  -9.224  0.00  0.00    -0.373 OA
BRANCH  11  12
ATOM     12  C   UNL     1       3.756   6.149 -10.573  0.00  0.00    +0.266 C 
BRANCH  12  18
ATOM     13 CL   UNL     1       9.035   5.727 -11.991  0.00  0.00    -0.082 Cl
ATOM     14  C   UNL     1       7.484   6.512 -12.280  0.00  0.00    +0.058 A 
ATOM     15  C   UNL     1       6.481   5.889 -13.012  0.00  0.00    +0.023 A 
ATOM     16  C   UNL     1       5.156   5.968 -12.600  0.00  0.00    +0.058 A 
ATOM     17 CL   UNL     1       3.862   5.156 -13.467  0.00  0.00    -0.082 Cl
ATOM     18  C   UNL     1       4.777   6.731 -11.502  0.00  0.00    +0.035 A 
ATOM     19  C   UNL     1       5.723   7.649 -11.064  0.00  0.00    +0.001 A 
ATOM     20  C   UNL     1       7.053   7.543 -11.453  0.00  0.00    +0.011 A 
ENDBRANCH  12  18
ENDBRANCH  11  12
ENDBRANCH   1  11
BRANCH   2  21
ATOM     21  C   UNL     1       3.354   4.941  -6.951  0.00  0.00    +0.157 C 
BRANCH  21  22
ATOM     22  N   UNL     1       4.020   5.178  -5.674  0.00  0.00    -0.302 N 
ATOM     23  C   UNL     1       4.624   6.357  -5.392  0.00  0.00    +0.179 A 
ATOM     24  N   UNL     1       4.888   6.418  -4.077  0.00  0.00    -0.222 NA
ATOM     25  C   UNL     1       4.661   5.169  -3.605  0.00  0.00    +0.119 A 
ATOM     26  C   UNL     1       3.711   4.642  -4.469  0.00  0.00    +0.098 A 
ENDBRANCH  21  22
ENDBRANCH   2  21
TORSDOF 6
ENDMDL
MODEL 2
REMARK VINA RESULT:      -8.2      2.266      4.030
REMARK  Name = 
REMARK  6 active torsions:
REMARK  status: ('A' for Active; 'I' for Inactive)
REMARK    1  A    between atoms: C_5  and  C_6
REMARK    2  A    between atoms: C_6  and  O_7
REMARK    3  A    between atoms: O_7  and  N_8
REMARK    4  A    between atoms: C_9  and  C_10
REMARK    5  A    between atoms: C_9  and  C_16
REMARK    6  A    between atoms: C_10  and  N_11
REMARK                            x       y       z     vdW  Elec       q    Type
REMARK                         _______ _______ _______ _____ _____    ______ ____
ROOT
ATOM      1  N   UNL     1       2.691   5.570  -8.689  0.00  0.00    -0.085 NA
ATOM      2  C   UNL     1       1.450   5.919  -8.766  0.00  0.00    +0.121 C 
ENDROOT
BRANCH   2   3
ATOM      3  C   UNL     1       0.656   5.773  -7.540  0.00  0.00    +0.029 A 
ATOM      4  C   UNL     1       0.897   6.621  -6.467  0.00  0.00    +0.060 A 
ATOM      5 CL   UNL     1       2.564   7.149  -6.254  0.00  0.00    -0.082 Cl
ATOM      6  C   UNL     1      -0.040   6.790  -5.465  0.00  0.00    +0.023 A 
ATOM      7  C   UNL     1      -1.173   6.010  -5.461  0.00  0.00    +0.059 A 
ATOM      8 CL   UNL     1      -2.019   5.591  -3.991  0.00  0.00    -0.082 Cl
ATOM      9  C   UNL     1      -1.483   5.290  -6.600  0.00  0.00    +0.011 A 
ATOM     10  C   UNL     1      -0.611   5.260  -7.663  0.00  0.00    +0.003 A 
ENDBRANCH   2   3
BRANCH   1  11
ATOM     11  O   UNL     1       3.689   6.114  -9.445  0.00  0.00    -0.373 OA
BRANCH  11  12
ATOM     12  C   UNL     1       4.247   5.344 -10.476  0.00  0.00    +0.266 C 
BRANCH  12  18
ATOM     13 CL   UNL     1       9.446   5.821 -12.151  0.00  0.00    -0.082 Cl
ATOM     14  C   UNL     1       7.786   6.397 -12.296  0.00  0.00    +0.058 A 
ATOM     15  C   UNL     1       6.841   5.704 -13.042  0.00  0.00    +0.023 A 
ATOM     16  C   UNL     1       5.543   5.553 -12.568  0.00  0.00    +0.058 A 
ATOM     17 CL   UNL     1       4.329   4.644 -13.455  0.00  0.00    -0.082 Cl
ATOM     18  C   UNL     1       5.123   6.150 -11.385  0.00  0.00    +0.035 A 
ATOM     19  C   UNL     1       5.955   7.151 -10.901  0.00  0.00    +0.001 A 
ATOM     20  C   UNL     1       7.262   7.275 -11.355  0.00  0.00    +0.011 A 
ENDBRANCH  12  18
ENDBRANCH  11  12
ENDBRANCH   1  11
BRANCH   2  21
ATOM     21  C   UNL     1       1.045   6.905  -9.807  0.00  0.00    +0.157 C 
BRANCH  21  22
ATOM     22  N   UNL     1       0.762   6.181 -11.043  0.00  0.00    -0.302 N 
ATOM     23  C   UNL     1       1.223   6.609 -12.242  0.00  0.00    +0.179 A 
ATOM     24  N   UNL     1       1.081   5.629 -13.148  0.00  0.00    -0.222 NA
ATOM     25  C   UNL     1       0.307   4.692 -12.548  0.00  0.00    +0.119 A 
ATOM     26  C   UNL     1       0.565   4.850 -11.194  0.00  0.00    +0.098 A 
ENDBRANCH  21  22
ENDBRANCH   2  21
TORSDOF 6
ENDMDL
MODEL 3
REMARK VINA RESULT:      -8.1      2.975      4.585
REMARK  Name = 
REMARK  6 active torsions:
REMARK  status: ('A' for Active; 'I' for Inactive)
REMARK    1  A    between atoms: C_5  and  C_6
REMARK    2  A    between atoms: C_6  and  O_7
REMARK    3  A    between atoms: O_7  and  N_8
REMARK    4  A    between atoms: C_9  and  C_10
REMARK    5  A    between atoms: C_9  and  C_16
REMARK    6  A    between atoms: C_10  and  N_11
REMARK                            x       y       z     vdW  Elec       q    Type
REMARK                         _______ _______ _______ _____ _____    ______ ____
ROOT
ATOM      1  N   UNL     1       2.447   4.538  -6.648  0.00  0.00    -0.085 NA
ATOM      2  C   UNL     1       1.902   5.534  -6.034  0.00  0.00    +0.121 C 
ENDROOT
BRANCH   2   3
ATOM      3  C   UNL     1       2.636   6.070  -4.882  0.00  0.00    +0.029 A 
ATOM      4  C   UNL     1       2.368   5.572  -3.614  0.00  0.00    +0.060 A 
ATOM      5 CL   UNL     1       0.708   5.066  -3.311  0.00  0.00    -0.082 Cl
ATOM      6  C   UNL     1       3.263   5.746  -2.574  0.00  0.00    +0.023 A 
ATOM      7  C   UNL     1       4.375   6.534  -2.764  0.00  0.00    +0.059 A 
ATOM      8 CL   UNL     1       5.141   7.405  -1.458  0.00  0.00    -0.082 Cl
ATOM      9  C   UNL     1       4.716   6.894  -4.055  0.00  0.00    +0.011 A 
ATOM     10  C   UNL     1       3.893   6.572  -5.107  0.00  0.00    +0.003 A 
ENDBRANCH   2   3
BRANCH   1  11
ATOM     11  O   UNL     1       2.277   4.268  -7.975  0.00  0.00    -0.373 OA
BRANCH  11  12
ATOM     12  C   UNL     1       3.395   3.891  -8.733  0.00  0.00    +0.266 C 
BRANCH  12  18
ATOM     13 CL   UNL     1       7.856   5.206 -11.638  0.00  0.00    -0.082 Cl
ATOM     14  C   UNL     1       6.525   5.775 -10.631  0.00  0.00    +0.058 A 
ATOM     15  C   UNL     1       5.245   5.941 -11.146  0.00  0.00    +0.023 A 
ATOM     16  C   UNL     1       4.135   5.549 -10.409  0.00  0.00    +0.058 A 
ATOM     17 CL   UNL     1       2.501   5.696 -11.040  0.00  0.00    -0.082 Cl
ATOM     18  C   UNL     1       4.252   5.060  -9.113  0.00  0.00    +0.035 A 
ATOM     19  C   UNL     1       5.476   5.299  -8.500  0.00  0.00    +0.001 A 
ATOM     20  C   UNL     1       6.591   5.656  -9.248  0.00  0.00    +0.011 A 
ENDBRANCH  12  18
ENDBRANCH  11  12
ENDBRANCH   1  11
BRANCH   2  21
ATOM     21  C   UNL     1       0.944   6.399  -6.779  0.00  0.00    +0.157 C 
BRANCH  21  22
ATOM     22  N   UNL     1      -0.405   6.115  -6.298  0.00  0.00    -0.302 N 
ATOM     23  C   UNL     1      -1.077   6.982  -5.504  0.00  0.00    +0.179 A 
ATOM     24  N   UNL     1      -2.371   6.628  -5.454  0.00  0.00    -0.222 NA
ATOM     25  C   UNL     1      -2.432   5.401  -6.025  0.00  0.00    +0.119 A 
ATOM     26  C   UNL     1      -1.364   5.381  -6.912  0.00  0.00    +0.098 A 
ENDBRANCH  21  22
ENDBRANCH   2  21
TORSDOF 6
ENDMDL
MODEL 4
REMARK VINA RESULT:      -8.1      3.631      5.743
REMARK  Name = 
REMARK  6 active torsions:
REMARK  status: ('A' for Active; 'I' for Inactive)
REMARK    1  A    between atoms: C_5  and  C_6
REMARK    2  A    between atoms: C_6  and  O_7
REMARK    3  A    between atoms: O_7  and  N_8
REMARK    4  A    between atoms: C_9  and  C_10
REMARK    5  A    between atoms: C_9  and  C_16
REMARK    6  A    between atoms: C_10  and  N_11
REMARK                            x       y       z     vdW  Elec       q    Type
REMARK                         _______ _______ _______ _____ _____    ______ ____
ROOT
ATOM      1  N   UNL     1       0.428   5.013  -5.623  0.00  0.00    -0.085 NA
ATOM      2  C   UNL     1       0.208   5.946  -4.758  0.00  0.00    +0.121 C 
ENDROOT
BRANCH   2   3
ATOM      3  C   UNL     1       1.347   6.338  -3.919  0.00  0.00    +0.029 A 
ATOM      4  C   UNL     1       1.650   5.587  -2.790  0.00  0.00    +0.060 A 
ATOM      5 CL   UNL     1       0.284   4.853  -1.954  0.00  0.00    -0.082 Cl
ATOM      6  C   UNL     1       2.895   5.665  -2.193  0.00  0.00    +0.023 A 
ATOM      7  C   UNL     1       3.804   6.593  -2.645  0.00  0.00    +0.059 A 
ATOM      8 CL   UNL     1       5.028   7.287  -1.610  0.00  0.00    -0.082 Cl
ATOM      9  C   UNL     1       3.562   7.221  -3.853  0.00  0.00    +0.011 A 
ATOM     10  C   UNL     1       2.380   7.009  -4.522  0.00  0.00    +0.003 A 
ENDBRANCH   2   3
BRANCH   1  11
ATOM     11  O   UNL     1      -0.236   4.894  -6.809  0.00  0.00    -0.373 OA
BRANCH  11  12
ATOM     12  C   UNL     1       0.358   5.418  -7.967  0.00  0.00    +0.266 C 
BRANCH  12  18
ATOM     13 CL   UNL     1       4.752   5.151 -11.235  0.00  0.00    -0.082 Cl
ATOM     14  C   UNL     1       4.140   5.248  -9.585  0.00  0.00    +0.058 A 
ATOM     15  C   UNL     1       3.708   6.452  -9.041  0.00  0.00    +0.023 A 
ATOM     16  C   UNL     1       2.560   6.499  -8.260  0.00  0.00    +0.058 A 
ATOM     17 CL   UNL     1       1.950   8.006  -7.593  0.00  0.00    -0.082 Cl
ATOM     18  C   UNL     1       1.854   5.349  -7.927  0.00  0.00    +0.035 A 
ATOM     19  C   UNL     1       2.536   4.157  -8.133  0.00  0.00    +0.001 A 
ATOM     20  C   UNL     1       3.664   4.111  -8.944  0.00  0.00    +0.011 A 
ENDBRANCH  12  18
ENDBRANCH  11  12
ENDBRANCH   1  11
BRANCH   2  21
ATOM     21  C   UNL     1      -0.905   6.905  -5.005  0.00  0.00    +0.157 C 
BRANCH  21  22
ATOM     22  N   UNL     1      -1.989   6.603  -4.075  0.00  0.00    -0.302 N 
ATOM     23  C   UNL     1      -2.552   5.373  -4.011  0.00  0.00    +0.179 A 
ATOM     24  N   UNL     1      -3.296   5.283  -2.897  0.00  0.00    -0.222 NA
ATOM     25  C   UNL     1      -3.378   6.546  -2.414  0.00  0.00    +0.119 A 
ATOM     26  C   UNL     1      -2.217   7.160  -2.862  0.00  0.00    +0.098 A 
ENDBRANCH  21  22
ENDBRANCH   2  21
TORSDOF 6
ENDMDL
MODEL 5
REMARK VINA RESULT:      -8.0      2.952      7.511
REMARK  Name = 
REMARK  6 active torsions:
REMARK  status: ('A' for Active; 'I' for Inactive)
REMARK    1  A    between atoms: C_5  and  C_6
REMARK    2  A    between atoms: C_6  and  O_7
REMARK    3  A    between atoms: O_7  and  N_8
REMARK    4  A    between atoms: C_9  and  C_10
REMARK    5  A    between atoms: C_9  and  C_16
REMARK    6  A    between atoms: C_10  and  N_11
REMARK                            x       y       z     vdW  Elec       q    Type
REMARK                         _______ _______ _______ _____ _____    ______ ____
ROOT
ATOM      1  N   UNL     1       3.410   7.294  -6.413  0.00  0.00    -0.085 NA
ATOM      2  C   UNL     1       3.096   6.195  -7.012  0.00  0.00    +0.121 C 
ENDROOT
BRANCH   2   3
ATOM      3  C   UNL     1       3.801   5.913  -8.268  0.00  0.00    +0.029 A 
ATOM      4  C   UNL     1       3.390   6.545  -9.435  0.00  0.00    +0.060 A 
ATOM      5 CL   UNL     1       1.666   6.883  -9.570  0.00  0.00    -0.082 Cl
ATOM      6  C   UNL     1       4.222   6.623 -10.537  0.00  0.00    +0.023 A 
ATOM      7  C   UNL     1       5.425   5.955 -10.524  0.00  0.00    +0.059 A 
ATOM      8 CL   UNL     1       6.188   5.370 -11.982  0.00  0.00    -0.082 Cl
ATOM      9  C   UNL     1       5.896   5.467  -9.319  0.00  0.00    +0.011 A 
ATOM     10  C   UNL     1       5.119   5.541  -8.187  0.00  0.00    +0.003 A 
ENDBRANCH   2   3
BRANCH   1  11
ATOM     11  O   UNL     1       3.339   7.479  -5.062  0.00  0.00    -0.373 OA
BRANCH  11  12
ATOM     12  C   UNL     1       4.531   7.658  -4.345  0.00  0.00    +0.266 C 
BRANCH  12  18
ATOM     13 CL   UNL     1       1.045   5.540  -0.681  0.00  0.00    -0.082 Cl
ATOM     14  C   UNL     1       2.722   5.886  -1.099  0.00  0.00    +0.058 A 
ATOM     15  C   UNL     1       3.430   5.079  -1.982  0.00  0.00    +0.023 A 
ATOM     16  C   UNL     1       4.266   5.646  -2.936  0.00  0.00    +0.058 A 
ATOM     17 CL   UNL     1       5.143   4.667  -4.103  0.00  0.00    -0.082 Cl
ATOM     18  C   UNL     1       4.489   7.017  -2.992  0.00  0.00    +0.035 A 
ATOM     19  C   UNL     1       4.105   7.724  -1.860  0.00  0.00    +0.001 A 
ATOM     20  C   UNL     1       3.240   7.164  -0.927  0.00  0.00    +0.011 A 
ENDBRANCH  12  18
ENDBRANCH  11  12
ENDBRANCH   1  11
BRANCH   2  21
ATOM     21  C   UNL     1       2.524   5.078  -6.209  0.00  0.00    +0.157 C 
BRANCH  21  22
ATOM     22  N   UNL     1       1.133   5.396  -5.901  0.00  0.00    -0.302 N 
ATOM     23  C   UNL     1       0.147   5.250  -6.817  0.00  0.00    +0.179 A 
ATOM     24  N   UNL     1      -1.045   5.321  -6.204  0.00  0.00    -0.222 NA
ATOM     25  C   UNL     1      -0.779   5.756  -4.949  0.00  0.00    +0.119 A 
ATOM     26  C   UNL     1       0.513   5.316  -4.699  0.00  0.00    +0.098 A 
ENDBRANCH  21  22
ENDBRANCH   2  21
TORSDOF 6
ENDMDL
MODEL 6
REMARK VINA RESULT:      -8.0      2.888      7.698
REMARK  Name = 
REMARK  6 active torsions:
REMARK  status: ('A' for Active; 'I' for Inactive)
REMARK    1  A    between atoms: C_5  and  C_6
REMARK    2  A    between atoms: C_6  and  O_7
REMARK    3  A    between atoms: O_7  and  N_8
REMARK    4  A    between atoms: C_9  and  C_10
REMARK    5  A    between atoms: C_9  and  C_16
REMARK    6  A    between atoms: C_10  and  N_11
REMARK                            x       y       z     vdW  Elec       q    Type
REMARK                         _______ _______ _______ _____ _____    ______ ____
ROOT
ATOM      1  N   UNL     1       3.204   7.148  -8.528  0.00  0.00    -0.085 NA
ATOM      2  C   UNL     1       3.422   6.662  -9.704  0.00  0.00    +0.121 C 
ENDROOT
BRANCH   2   3
ATOM      3  C   UNL     1       4.820   6.638 -10.150  0.00  0.00    +0.029 A 
ATOM      4  C   UNL     1       5.639   5.584  -9.765  0.00  0.00    +0.060 A 
ATOM      5 CL   UNL     1       5.317   4.889  -8.179  0.00  0.00    -0.082 Cl
ATOM      6  C   UNL     1       6.811   5.306 -10.443  0.00  0.00    +0.023 A 
ATOM      7  C   UNL     1       7.240   6.162 -11.432  0.00  0.00    +0.059 A 
ATOM      8 CL   UNL     1       8.929   6.362 -11.832  0.00  0.00    -0.082 Cl
ATOM      9  C   UNL     1       6.355   7.109 -11.914  0.00  0.00    +0.011 A 
ATOM     10  C   UNL     1       5.121   7.268 -11.331  0.00  0.00    +0.003 A 
ENDBRANCH   2   3
BRANCH   1  11
ATOM     11  O   UNL     1       2.168   6.773  -7.722  0.00  0.00    -0.373 OA
BRANCH  11  12
ATOM     12  C   UNL     1       2.231   7.087  -6.357  0.00  0.00    +0.266 C 
BRANCH  12  18
ATOM     13 CL   UNL     1       4.282   6.004  -1.388  0.00  0.00    -0.082 Cl
ATOM     14  C   UNL     1       4.485   5.869  -3.134  0.00  0.00    +0.058 A 
ATOM     15  C   UNL     1       3.810   4.903  -3.870  0.00  0.00    +0.023 A 
ATOM     16  C   UNL     1       3.254   5.220  -5.103  0.00  0.00    +0.058 A 
ATOM     17 CL   UNL     1       2.350   4.043  -6.046  0.00  0.00    -0.082 Cl
ATOM     18  C   UNL     1       3.419   6.474  -5.680  0.00  0.00    +0.035 A 
ATOM     19  C   UNL     1       4.425   7.253  -5.122  0.00  0.00    +0.001 A 
ATOM     20  C   UNL     1       4.952   6.949  -3.873  0.00  0.00    +0.011 A 
ENDBRANCH  12  18
ENDBRANCH  11  12
ENDBRANCH   1  11
BRANCH   2  21
ATOM     21  C   UNL     1       2.437   5.702 -10.277  0.00  0.00    +0.157 C 
BRANCH  21  22
ATOM     22  N   UNL     1       1.441   6.458 -11.030  0.00  0.00    -0.302 N 
ATOM     23  C   UNL     1       1.513   6.591 -12.376  0.00  0.00    +0.179 A 
ATOM     24  N   UNL     1       0.344   7.063 -12.839  0.00  0.00    -0.222 NA
ATOM     25  C   UNL     1      -0.351   7.445 -11.741  0.00  0.00    +0.119 A 
ATOM     26  C   UNL     1       0.132   6.630 -10.728  0.00  0.00    +0.098 A 
ENDBRANCH  21  22
ENDBRANCH   2  21
TORSDOF 6
ENDMDL
MODEL 7
REMARK VINA RESULT:      -7.9      2.927      7.919
REMARK  Name = 
REMARK  6 active torsions:
REMARK  status: ('A' for Active; 'I' for Inactive)
REMARK    1  A    between atoms: C_5  and  C_6
REMARK    2  A    between atoms: C_6  and  O_7
REMARK    3  A    between atoms: O_7  and  N_8
REMARK    4  A    between atoms: C_9  and  C_10
REMARK    5  A    between atoms: C_9  and  C_16
REMARK    6  A    between atoms: C_10  and  N_11
REMARK                            x       y       z     vdW  Elec       q    Type
REMARK                         _______ _______ _______ _____ _____    ______ ____
ROOT
ATOM      1  N   UNL     1       3.824   6.383  -8.110  0.00  0.00    -0.085 NA
ATOM      2  C   UNL     1       3.820   5.728  -9.222  0.00  0.00    +0.121 C 
ENDROOT
BRANCH   2   3
ATOM      3  C   UNL     1       5.095   5.662  -9.944  0.00  0.00    +0.029 A 
ATOM      4  C   UNL     1       5.211   6.290 -11.178  0.00  0.00    +0.060 A 
ATOM      5 CL   UNL     1       3.756   6.329 -12.170  0.00  0.00    -0.082 Cl
ATOM      6  C   UNL     1       6.450   6.590 -11.714  0.00  0.00    +0.023 A 
ATOM      7  C   UNL     1       7.586   6.145 -11.079  0.00  0.00    +0.059 A 
ATOM      8 CL   UNL     1       9.069   5.805 -11.938  0.00  0.00    -0.082 Cl
ATOM      9  C   UNL     1       7.476   5.665  -9.787  0.00  0.00    +0.011 A 
ATOM     10  C   UNL     1       6.240   5.523  -9.201  0.00  0.00    +0.003 A 
ENDBRANCH   2   3
BRANCH   1  11
ATOM     11  O   UNL     1       2.996   6.116  -7.058  0.00  0.00    -0.373 OA
BRANCH  11  12
ATOM     12  C   UNL     1       2.787   7.115  -6.097  0.00  0.00    +0.266 C 
BRANCH  12  18
ATOM     13 CL   UNL     1       3.682   9.209  -1.109  0.00  0.00    -0.082 Cl
ATOM     14  C   UNL     1       3.905   7.845  -2.203  0.00  0.00    +0.058 A 
ATOM     15  C   UNL     1       2.887   6.928  -2.436  0.00  0.00    +0.023 A 
ATOM     16  C   UNL     1       2.648   6.455  -3.720  0.00  0.00    +0.058 A 
ATOM     17 CL   UNL     1       1.342   5.333  -4.069  0.00  0.00    -0.082 Cl
ATOM     18  C   UNL     1       3.458   6.809  -4.793  0.00  0.00    +0.035 A 
ATOM     19  C   UNL     1       4.680   7.375  -4.450  0.00  0.00    +0.001 A 
ATOM     20  C   UNL     1       4.899   7.878  -3.173  0.00  0.00    +0.011 A 
ENDBRANCH  12  18
ENDBRANCH  11  12
ENDBRANCH   1  11
BRANCH   2  21
ATOM     21  C   UNL     1       2.787   4.674  -9.430  0.00  0.00    +0.157 C 
BRANCH  21  22
ATOM     22  N   UNL     1       1.655   5.270 -10.133  0.00  0.00    -0.302 N 
ATOM     23  C   UNL     1       0.774   4.517 -10.834  0.00  0.00    +0.179 A 
ATOM     24  N   UNL     1      -0.310   5.255 -11.123  0.00  0.00    -0.222 NA
ATOM     25  C   UNL     1       0.025   6.528 -10.805  0.00  0.00    +0.119 A 
ATOM     26  C   UNL     1       0.975   6.393  -9.802  0.00  0.00    +0.098 A 
ENDBRANCH  21  22
ENDBRANCH   2  21
TORSDOF 6
ENDMDL
MODEL 8
REMARK VINA RESULT:      -7.9      3.251      8.412
REMARK  Name = 
REMARK  6 active torsions:
REMARK  status: ('A' for Active; 'I' for Inactive)
REMARK    1  A    between atoms: C_5  and  C_6
REMARK    2  A    between atoms: C_6  and  O_7
REMARK    3  A    between atoms: O_7  and  N_8
REMARK    4  A    between atoms: C_9  and  C_10
REMARK    5  A    between atoms: C_9  and  C_16
REMARK    6  A    between atoms: C_10  and  N_11
REMARK                            x       y       z     vdW  Elec       q    Type
REMARK                         _______ _______ _______ _____ _____    ______ ____
ROOT
ATOM      1  N   UNL     1       0.527   6.085  -8.292  0.00  0.00    -0.085 NA
ATOM      2  C   UNL     1       1.191   5.821  -9.367  0.00  0.00    +0.121 C 
ENDROOT
BRANCH   2   3
ATOM      3  C   UNL     1       2.654   5.854  -9.253  0.00  0.00    +0.029 A 
ATOM      4  C   UNL     1       3.338   4.689  -8.932  0.00  0.00    +0.060 A 
ATOM      5 CL   UNL     1       2.501   3.565  -7.865  0.00  0.00    -0.082 Cl
ATOM      6  C   UNL     1       4.692   4.562  -9.182  0.00  0.00    +0.023 A 
ATOM      7  C   UNL     1       5.400   5.651  -9.636  0.00  0.00    +0.059 A 
ATOM      8 CL   UNL     1       7.102   5.867  -9.308  0.00  0.00    -0.082 Cl
ATOM      9  C   UNL     1       4.697   6.749 -10.100  0.00  0.00    +0.011 A 
ATOM     10  C   UNL     1       3.328   6.794  -9.992  0.00  0.00    +0.003 A 
ENDBRANCH   2   3
BRANCH   1  11
ATOM     11  O   UNL     1      -0.713   5.587  -8.014  0.00  0.00    -0.373 OA
BRANCH  11  12
ATOM     12  C   UNL     1      -0.942   5.022  -6.751  0.00  0.00    +0.266 C 
BRANCH  12  18
ATOM     13 CL   UNL     1      -2.630   5.919  -1.612  0.00  0.00    -0.082 Cl
ATOM     14  C   UNL     1      -1.697   6.508  -2.987  0.00  0.00    +0.058 A 
ATOM     15  C   UNL     1      -0.424   6.023  -3.262  0.00  0.00    +0.023 A 
ATOM     16  C   UNL     1      -0.041   5.753  -4.570  0.00  0.00    +0.058 A 
ATOM     17 CL   UNL     1       1.540   5.094  -4.959  0.00  0.00    -0.082 Cl
ATOM     18  C   UNL     1      -0.874   6.032  -5.648  0.00  0.00    +0.035 A 
ATOM     19  C   UNL     1      -1.937   6.882  -5.369  0.00  0.00    +0.001 A 
ATOM     20  C   UNL     1      -2.336   7.120  -4.059  0.00  0.00    +0.011 A 
ENDBRANCH  12  18
ENDBRANCH  11  12
ENDBRANCH   1  11
BRANCH   2  21
ATOM     21  C   UNL     1       0.542   5.003 -10.429  0.00  0.00    +0.157 C 
BRANCH  21  22
ATOM     22  N   UNL     1       0.434   5.816 -11.637  0.00  0.00    -0.302 N 
ATOM     23  C   UNL     1      -0.056   7.078 -11.606  0.00  0.00    +0.179 A 
ATOM     24  N   UNL     1       0.227   7.693 -12.765  0.00  0.00    -0.222 NA
ATOM     25  C   UNL     1       0.675   6.718 -13.591  0.00  0.00    +0.119 A 
ATOM     26  C   UNL     1       1.221   5.769 -12.738  0.00  0.00    +0.098 A 
ENDBRANCH  21  22
ENDBRANCH   2  21
TORSDOF 6
ENDMDL
MODEL 9
REMARK VINA RESULT:      -7.9      2.075      2.775
REMARK  Name = 
REMARK  6 active torsions:
REMARK  status: ('A' for Active; 'I' for Inactive)
REMARK    1  A    between atoms: C_5  and  C_6
REMARK    2  A    between atoms: C_6  and  O_7
REMARK    3  A    between atoms: O_7  and  N_8
REMARK    4  A    between atoms: C_9  and  C_10
REMARK    5  A    between atoms: C_9  and  C_16
REMARK    6  A    between atoms: C_10  and  N_11
REMARK                            x       y       z     vdW  Elec       q    Type
REMARK                         _______ _______ _______ _____ _____    ______ ____
ROOT
ATOM      1  N   UNL     1       1.599   4.690  -6.800  0.00  0.00    -0.085 NA
ATOM      2  C   UNL     1       1.689   5.140  -5.593  0.00  0.00    +0.121 C 
ENDROOT
BRANCH   2   3
ATOM      3  C   UNL     1       0.430   5.538  -4.950  0.00  0.00    +0.029 A 
ATOM      4  C   UNL     1      -0.751   5.488  -5.679  0.00  0.00    +0.060 A 
ATOM      5 CL   UNL     1      -0.617   5.828  -7.402  0.00  0.00    -0.082 Cl
ATOM      6  C   UNL     1      -1.981   5.475  -5.047  0.00  0.00    +0.023 A 
ATOM      7  C   UNL     1      -2.041   5.644  -3.683  0.00  0.00    +0.059 A 
ATOM      8 CL   UNL     1      -3.424   6.353  -2.886  0.00  0.00    -0.082 Cl
ATOM      9  C   UNL     1      -0.872   5.536  -2.952  0.00  0.00    +0.011 A 
ATOM     10  C   UNL     1       0.336   5.385  -3.590  0.00  0.00    +0.003 A 
ENDBRANCH   2   3
BRANCH   1  11
ATOM     11  O   UNL     1       2.462   3.787  -7.348  0.00  0.00    -0.373 OA
BRANCH  11  12
ATOM     12  C   UNL     1       2.948   4.023  -8.643  0.00  0.00    +0.266 C 
BRANCH  12  18
ATOM     13 CL   UNL     1       6.932   6.178 -11.732  0.00  0.00    -0.082 Cl
ATOM     14  C   UNL     1       5.935   6.330 -10.286  0.00  0.00    +0.058 A 
ATOM     15  C   UNL     1       4.628   6.797 -10.352  0.00  0.00    +0.023 A 
ATOM     16  C   UNL     1       3.628   6.197  -9.598  0.00  0.00    +0.058 A 
ATOM     17 CL   UNL     1       1.954   6.724  -9.686  0.00  0.00    -0.082 Cl
ATOM     18  C   UNL     1       3.904   5.174  -8.698  0.00  0.00    +0.035 A 
ATOM     19  C   UNL     1       5.244   5.028  -8.363  0.00  0.00    +0.001 A 
ATOM     20  C   UNL     1       6.241   5.602  -9.142  0.00  0.00    +0.011 A 
ENDBRANCH  12  18
ENDBRANCH  11  12
ENDBRANCH   1  11
BRANCH   2  21
ATOM     21  C   UNL     1       2.859   4.739  -4.763  0.00  0.00    +0.157 C 
BRANCH  21  22
ATOM     22  N   UNL     1       3.596   5.943  -4.392  0.00  0.00    -0.302 N 
ATOM     23  C   UNL     1       4.160   6.087  -3.169  0.00  0.00    +0.179 A 
ATOM     24  N   UNL     1       5.011   7.125  -3.190  0.00  0.00    -0.222 NA
ATOM     25  C   UNL     1       4.775   7.760  -4.364  0.00  0.00    +0.119 A 
ATOM     26  C   UNL     1       4.305   6.762  -5.206  0.00  0.00    +0.098 A 
ENDBRANCH  21  22
ENDBRANCH   2  21
TORSDOF 6
ENDMDL
