MODEL 1
REMARK VINA RESULT:      -7.9      0.000      0.000
REMARK  Name = 
REMARK  14 active torsions:
REMARK  status: ('A' for Active; 'I' for Inactive)
REMARK    1  A    between atoms: O_2  and  C_3
REMARK    2  A    between atoms: C_6  and  C_7
REMARK    3  A    between atoms: C_7  and  C_8
REMARK    4  A    between atoms: C_8  and  N_9
REMARK    5  A    between atoms: N_9  and  C_11
REMARK    6  A    between atoms: C_11  and  C_12
REMARK    7  A    between atoms: C_12  and  C_13
REMARK    8  A    between atoms: C_13  and  C_14
REMARK    9  A    between atoms: C_14  and  C_15
REMARK   10  A    between atoms: C_14  and  C_17
REMARK   11  A    between atoms: C_14  and  C_27
REMARK   12  A    between atoms: C_20  and  O_21
REMARK   13  A    between atoms: C_23  and  O_24
REMARK   14  A    between atoms: C_31  and  O_32
REMARK                            x       y       z     vdW  Elec       q    Type
REMARK                         _______ _______ _______ _____ _____    ______ ____
ROOT
ATOM      1  C   UNL     1       2.934   6.751  -6.359  0.00  0.00    +0.020 C 
ENDROOT
BRANCH   1   2
ATOM      2  C   UNL     1       2.516   5.866  -5.220  0.00  0.00    +0.098 C 
BRANCH   2   3
ATOM      3  C   UNL     1       1.240   6.323  -4.584  0.00  0.00    -0.006 A 
ATOM      4  C   UNL     1       1.134   6.204  -3.218  0.00  0.00    +0.037 A 
ATOM      5  C   UNL     1      -0.060   5.900  -2.575  0.00  0.00    +0.172 A 
ATOM      6  C   UNL     1      -1.147   5.489  -3.336  0.00  0.00    +0.172 A 
ATOM      7  C   UNL     1      -1.129   5.804  -4.684  0.00  0.00    +0.040 A 
ATOM      8  C   UNL     1       0.070   6.125  -5.307  0.00  0.00    +0.000 A 
BRANCH   6   9
ATOM      9  O   UNL     1      -2.313   5.055  -2.733  0.00  0.00    -0.468 OA
ATOM     10  C   UNL     1      -3.413   5.941  -2.659  0.00  0.00    +0.253 C 
ENDBRANCH   6   9
BRANCH   5  11
ATOM     11  O   UNL     1      -0.086   5.484  -1.240  0.00  0.00    -0.468 OA
ATOM     12  C   UNL     1       0.045   6.523  -0.272  0.00  0.00    +0.253 C 
ENDBRANCH   5  11
ENDBRANCH   2   3
BRANCH   2  13
ATOM     13  C   UNL     1       3.562   5.844  -4.119  0.00  0.00    +0.017 C 
ATOM     14  C   UNL     1       4.365   4.563  -4.207  0.00  0.00    +0.001 C 
ATOM     15  C   UNL     1       4.415   7.075  -4.271  0.00  0.00    +0.001 C 
ENDBRANCH   2  13
BRANCH   2  16
ATOM     16  C   UNL     1       2.308   4.518  -5.779  0.00  0.00    +0.075 C 
ATOM     17  N   UNL     1       2.217   3.545  -6.417  0.00  0.00    -0.196 NA
ENDBRANCH   2  16
ENDBRANCH   1   2
BRANCH   1  18
ATOM     18  C   UNL     1       1.740   7.346  -7.094  0.00  0.00    +0.019 C 
BRANCH  18  19
ATOM     19  C   UNL     1       1.862   7.155  -8.596  0.00  0.00    +0.072 C 
BRANCH  19  20
ATOM     20  N   UNL     1       1.467   5.812  -8.933  0.00  0.00    -0.271 NA
ATOM     21  C   UNL     1       0.072   5.692  -9.277  0.00  0.00    +0.090 C 
BRANCH  20  22
ATOM     22  C   UNL     1       2.343   5.175  -9.883  0.00  0.00    +0.077 C 
BRANCH  22  23
ATOM     23  C   UNL     1       3.624   4.673  -9.272  0.00  0.00    +0.044 C 
BRANCH  23  27
ATOM     24  C   UNL     1       7.083   5.584 -11.517  0.00  0.00    +0.172 A 
ATOM     25  C   UNL     1       5.882   5.351 -12.172  0.00  0.00    +0.172 A 
ATOM     26  C   UNL     1       4.700   5.269 -11.448  0.00  0.00    +0.036 A 
ATOM     27  C   UNL     1       4.746   5.247 -10.064  0.00  0.00    -0.018 A 
ATOM     28  C   UNL     1       5.814   5.891  -9.478  0.00  0.00    -0.001 A 
ATOM     29  C   UNL     1       6.985   6.031 -10.212  0.00  0.00    +0.040 A 
BRANCH  24  31
ATOM     30  C   UNL     1       9.153   5.823 -12.374  0.00  0.00    +0.253 C 
ATOM     31  O   UNL     1       8.288   5.135 -12.066  0.00  0.00    -0.468 OA
ENDBRANCH  24  31
BRANCH  25  32
ATOM     32  O   UNL     1       5.916   5.153 -13.537  0.00  0.00    -0.468 OA
ATOM     33  C   UNL     1       5.917   6.221 -14.455  0.00  0.00    +0.253 C 
ENDBRANCH  25  32
ENDBRANCH  23  27
ENDBRANCH  22  23
ENDBRANCH  20  22
ENDBRANCH  19  20
ENDBRANCH  18  19
ENDBRANCH   1  18
TORSDOF 14
ENDMDL
MODEL 2
REMARK VINA RESULT:      -7.6      2.428      3.656
REMARK  Name = 
REMARK  14 active torsions:
REMARK  status: ('A' for Active; 'I' for Inactive)
REMARK    1  A    between atoms: O_2  and  C_3
REMARK    2  A    between atoms: C_6  and  C_7
REMARK    3  A    between atoms: C_7  and  C_8
REMARK    4  A    between atoms: C_8  and  N_9
REMARK    5  A    between atoms: N_9  and  C_11
REMARK    6  A    between atoms: C_11  and  C_12
REMARK    7  A    between atoms: C_12  and  C_13
REMARK    8  A    between atoms: C_13  and  C_14
REMARK    9  A    between atoms: C_14  and  C_15
REMARK   10  A    between atoms: C_14  and  C_17
REMARK   11  A    between atoms: C_14  and  C_27
REMARK   12  A    between atoms: C_20  and  O_21
REMARK   13  A    between atoms: C_23  and  O_24
REMARK   14  A    between atoms: C_31  and  O_32
REMARK                            x       y       z     vdW  Elec       q    Type
REMARK                         _______ _______ _______ _____ _____    ______ ____
ROOT
ATOM      1  C   UNL     1       3.008   6.961  -6.192  0.00  0.00    +0.020 C 
ENDROOT
BRANCH   1   2
ATOM      2  C   UNL     1       2.506   6.041  -5.117  0.00  0.00    +0.098 C 
BRANCH   2   3
ATOM      3  C   UNL     1       1.198   6.496  -4.545  0.00  0.00    -0.006 A 
ATOM      4  C   UNL     1       0.910   6.131  -3.252  0.00  0.00    +0.037 A 
ATOM      5  C   UNL     1      -0.377   5.831  -2.818  0.00  0.00    +0.172 A 
ATOM      6  C   UNL     1      -1.386   5.685  -3.761  0.00  0.00    +0.172 A 
ATOM      7  C   UNL     1      -1.171   6.248  -5.008  0.00  0.00    +0.040 A 
ATOM      8  C   UNL     1       0.119   6.559  -5.418  0.00  0.00    +0.000 A 
BRANCH   6   9
ATOM      9  O   UNL     1      -2.649   5.264  -3.389  0.00  0.00    -0.468 OA
ATOM     10  C   UNL     1      -3.586   6.228  -2.946  0.00  0.00    +0.253 C 
ENDBRANCH   6   9
BRANCH   5  11
ATOM     11  O   UNL     1      -0.604   5.174  -1.604  0.00  0.00    -0.468 OA
ATOM     12  C   UNL     1      -0.766   6.022  -0.469  0.00  0.00    +0.253 C 
ENDBRANCH   5  11
ENDBRANCH   2   3
BRANCH   2  13
ATOM     13  C   UNL     1       3.479   5.961  -3.953  0.00  0.00    +0.017 C 
ATOM     14  C   UNL     1       4.395   4.770  -4.138  0.00  0.00    +0.001 C 
ATOM     15  C   UNL     1       4.228   7.265  -3.891  0.00  0.00    +0.001 C 
ENDBRANCH   2  13
BRANCH   2  16
ATOM     16  C   UNL     1       2.316   4.719  -5.738  0.00  0.00    +0.075 C 
ATOM     17  N   UNL     1       1.981   3.660  -6.096  0.00  0.00    -0.196 NA
ENDBRANCH   2  16
ENDBRANCH   1   2
BRANCH   1  18
ATOM     18  C   UNL     1       3.678   6.204  -7.331  0.00  0.00    +0.019 C 
BRANCH  18  19
ATOM     19  C   UNL     1       3.022   6.516  -8.666  0.00  0.00    +0.072 C 
BRANCH  19  20
ATOM     20  N   UNL     1       2.964   5.312  -9.454  0.00  0.00    -0.271 NA
ATOM     21  C   UNL     1       3.955   4.333  -9.084  0.00  0.00    +0.090 C 
BRANCH  20  22
ATOM     22  C   UNL     1       1.637   4.762  -9.568  0.00  0.00    +0.077 C 
BRANCH  22  23
ATOM     23  C   UNL     1       0.555   5.809  -9.594  0.00  0.00    +0.044 C 
BRANCH  23  27
ATOM     24  C   UNL     1       0.568   7.136 -13.603  0.00  0.00    +0.172 A 
ATOM     25  C   UNL     1       0.932   5.829 -13.312  0.00  0.00    +0.172 A 
ATOM     26  C   UNL     1       0.723   5.316 -12.038  0.00  0.00    +0.036 A 
ATOM     27  C   UNL     1       0.316   6.162 -11.019  0.00  0.00    -0.018 A 
ATOM     28  C   UNL     1      -0.423   7.262 -11.397  0.00  0.00    -0.001 A 
ATOM     29  C   UNL     1      -0.267   7.751 -12.688  0.00  0.00    +0.040 A 
BRANCH  24  31
ATOM     30  C   UNL     1       0.886   8.868 -15.008  0.00  0.00    +0.253 C 
ATOM     31  O   UNL     1       1.228   7.848 -14.610  0.00  0.00    -0.468 OA
ENDBRANCH  24  31
BRANCH  25  32
ATOM     32  O   UNL     1       1.547   5.092 -14.303  0.00  0.00    -0.468 OA
ATOM     33  C   UNL     1       2.848   4.570 -14.158  0.00  0.00    +0.253 C 
ENDBRANCH  25  32
ENDBRANCH  23  27
ENDBRANCH  22  23
ENDBRANCH  20  22
ENDBRANCH  19  20
ENDBRANCH  18  19
ENDBRANCH   1  18
TORSDOF 14
ENDMDL
MODEL 3
REMARK VINA RESULT:      -7.5      2.132      8.856
REMARK  Name = 
REMARK  14 active torsions:
REMARK  status: ('A' for Active; 'I' for Inactive)
REMARK    1  A    between atoms: O_2  and  C_3
REMARK    2  A    between atoms: C_6  and  C_7
REMARK    3  A    between atoms: C_7  and  C_8
REMARK    4  A    between atoms: C_8  and  N_9
REMARK    5  A    between atoms: N_9  and  C_11
REMARK    6  A    between atoms: C_11  and  C_12
REMARK    7  A    between atoms: C_12  and  C_13
REMARK    8  A    between atoms: C_13  and  C_14
REMARK    9  A    between atoms: C_14  and  C_15
REMARK   10  A    between atoms: C_14  and  C_17
REMARK   11  A    between atoms: C_14  and  C_27
REMARK   12  A    between atoms: C_20  and  O_21
REMARK   13  A    between atoms: C_23  and  O_24
REMARK   14  A    between atoms: C_31  and  O_32
REMARK                            x       y       z     vdW  Elec       q    Type
REMARK                         _______ _______ _______ _____ _____    ______ ____
ROOT
ATOM      1  C   UNL     1       1.458   5.524  -9.699  0.00  0.00    +0.020 C 
ENDROOT
BRANCH   1   2
ATOM      2  C   UNL     1       2.750   6.079  -9.171  0.00  0.00    +0.098 C 
BRANCH   2   3
ATOM      3  C   UNL     1       3.698   6.453 -10.268  0.00  0.00    -0.006 A 
ATOM      4  C   UNL     1       3.363   6.086 -11.550  0.00  0.00    +0.037 A 
ATOM      5  C   UNL     1       4.304   5.709 -12.501  0.00  0.00    +0.172 A 
ATOM      6  C   UNL     1       5.614   5.485 -12.096  0.00  0.00    +0.172 A 
ATOM      7  C   UNL     1       6.008   6.045 -10.893  0.00  0.00    +0.040 A 
ATOM      8  C   UNL     1       5.053   6.435  -9.962  0.00  0.00    +0.000 A 
BRANCH   6   9
ATOM      9  O   UNL     1       6.554   4.987 -12.980  0.00  0.00    -0.468 OA
ATOM     10  C   UNL     1       7.917   5.309 -12.778  0.00  0.00    +0.253 C 
ENDBRANCH   6   9
BRANCH   5  11
ATOM     11  O   UNL     1       3.930   5.053 -13.678  0.00  0.00    -0.468 OA
ATOM     12  C   UNL     1       2.527   4.986 -13.924  0.00  0.00    +0.253 C 
ENDBRANCH   5  11
ENDBRANCH   2   3
BRANCH   2  13
ATOM     13  C   UNL     1       3.477   5.067  -8.302  0.00  0.00    +0.017 C 
ATOM     14  C   UNL     1       3.318   5.443  -6.844  0.00  0.00    +0.001 C 
ATOM     15  C   UNL     1       2.915   3.706  -8.614  0.00  0.00    +0.001 C 
ENDBRANCH   2  13
BRANCH   2  16
ATOM     16  C   UNL     1       2.414   7.291  -8.403  0.00  0.00    +0.075 C 
ATOM     17  N   UNL     1       2.335   8.337  -7.892  0.00  0.00    -0.196 NA
ENDBRANCH   2  16
ENDBRANCH   1   2
BRANCH   1  18
ATOM     18  C   UNL     1       0.245   6.142  -9.017  0.00  0.00    +0.019 C 
BRANCH  18  19
ATOM     19  C   UNL     1      -0.355   5.199  -7.989  0.00  0.00    +0.072 C 
BRANCH  19  20
ATOM     20  N   UNL     1      -0.921   5.972  -6.914  0.00  0.00    -0.271 NA
ATOM     21  C   UNL     1      -2.220   5.509  -6.494  0.00  0.00    +0.090 C 
BRANCH  20  22
ATOM     22  C   UNL     1      -0.012   6.187  -5.817  0.00  0.00    +0.077 C 
BRANCH  22  23
ATOM     23  C   UNL     1      -0.039   5.083  -4.793  0.00  0.00    +0.044 C 
BRANCH  23  27
ATOM     24  C   UNL     1       2.465   5.990  -1.515  0.00  0.00    +0.172 A 
ATOM     25  C   UNL     1       2.549   6.749  -2.674  0.00  0.00    +0.172 A 
ATOM     26  C   UNL     1       1.591   6.609  -3.669  0.00  0.00    +0.036 A 
ATOM     27  C   UNL     1       0.657   5.590  -3.579  0.00  0.00    -0.018 A 
ATOM     28  C   UNL     1       0.327   5.173  -2.307  0.00  0.00    -0.001 A 
ATOM     29  C   UNL     1       1.254   5.361  -1.290  0.00  0.00    +0.040 A 
BRANCH  24  31
ATOM     30  C   UNL     1       4.345   4.835  -1.062  0.00  0.00    +0.253 C 
ATOM     31  O   UNL     1       3.617   5.678  -0.787  0.00  0.00    -0.468 OA
ENDBRANCH  24  31
BRANCH  25  32
ATOM     32  O   UNL     1       3.631   7.593  -2.818  0.00  0.00    -0.468 OA
ATOM     33  C   UNL     1       4.502   7.523  -3.923  0.00  0.00    +0.253 C 
ENDBRANCH  25  32
ENDBRANCH  23  27
ENDBRANCH  22  23
ENDBRANCH  20  22
ENDBRANCH  19  20
ENDBRANCH  18  19
ENDBRANCH   1  18
TORSDOF 14
ENDMDL
MODEL 4
REMARK VINA RESULT:      -7.5      2.476      8.872
REMARK  Name = 
REMARK  14 active torsions:
REMARK  status: ('A' for Active; 'I' for Inactive)
REMARK    1  A    between atoms: O_2  and  C_3
REMARK    2  A    between atoms: C_6  and  C_7
REMARK    3  A    between atoms: C_7  and  C_8
REMARK    4  A    between atoms: C_8  and  N_9
REMARK    5  A    between atoms: N_9  and  C_11
REMARK    6  A    between atoms: C_11  and  C_12
REMARK    7  A    between atoms: C_12  and  C_13
REMARK    8  A    between atoms: C_13  and  C_14
REMARK    9  A    between atoms: C_14  and  C_15
REMARK   10  A    between atoms: C_14  and  C_17
REMARK   11  A    between atoms: C_14  and  C_27
REMARK   12  A    between atoms: C_20  and  O_21
REMARK   13  A    between atoms: C_23  and  O_24
REMARK   14  A    between atoms: C_31  and  O_32
REMARK                            x       y       z     vdW  Elec       q    Type
REMARK                         _______ _______ _______ _____ _____    ______ ____
ROOT
ATOM      1  C   UNL     1       0.326   5.582  -7.001  0.00  0.00    +0.020 C 
ENDROOT
BRANCH   1   2
ATOM      2  C   UNL     1       1.636   5.768  -7.711  0.00  0.00    +0.098 C 
BRANCH   2   3
ATOM      3  C   UNL     1       1.564   5.362  -9.151  0.00  0.00    -0.006 A 
ATOM      4  C   UNL     1       2.712   5.472  -9.899  0.00  0.00    +0.037 A 
ATOM      5  C   UNL     1       2.709   5.824 -11.244  0.00  0.00    +0.172 A 
ATOM      6  C   UNL     1       1.531   6.290 -11.813  0.00  0.00    +0.172 A 
ATOM      7  C   UNL     1       0.350   5.988 -11.157  0.00  0.00    +0.040 A 
ATOM      8  C   UNL     1       0.373   5.619  -9.818  0.00  0.00    +0.000 A 
BRANCH   6   9
ATOM      9  O   UNL     1       1.510   6.771 -13.110  0.00  0.00    -0.468 OA
ATOM     10  C   UNL     1       0.513   7.706 -13.474  0.00  0.00    +0.253 C 
ENDBRANCH   6   9
BRANCH   5  11
ATOM     11  O   UNL     1       3.879   6.227 -11.897  0.00  0.00    -0.468 OA
ATOM     12  C   UNL     1       4.553   5.208 -12.632  0.00  0.00    +0.253 C 
ENDBRANCH   5  11
ENDBRANCH   2   3
BRANCH   2  13
ATOM     13  C   UNL     1       2.735   4.929  -7.082  0.00  0.00    +0.017 C 
ATOM     14  C   UNL     1       3.560   5.791  -6.150  0.00  0.00    +0.001 C 
ATOM     15  C   UNL     1       2.082   3.771  -6.376  0.00  0.00    +0.001 C 
ENDBRANCH   2  13
BRANCH   2  16
ATOM     16  C   UNL     1       1.961   7.204  -7.641  0.00  0.00    +0.075 C 
ATOM     17  N   UNL     1       2.189   8.336  -7.811  0.00  0.00    -0.196 NA
ENDBRANCH   2  16
ENDBRANCH   1   2
BRANCH   1  18
ATOM     18  C   UNL     1       0.042   6.705  -6.012  0.00  0.00    +0.019 C 
BRANCH  18  19
ATOM     19  C   UNL     1      -1.313   6.530  -5.348  0.00  0.00    +0.072 C 
BRANCH  19  20
ATOM     20  N   UNL     1      -1.378   7.371  -4.181  0.00  0.00    -0.271 NA
ATOM     21  C   UNL     1      -2.039   8.631  -4.416  0.00  0.00    +0.090 C 
BRANCH  20  22
ATOM     22  C   UNL     1      -1.855   6.690  -3.005  0.00  0.00    +0.077 C 
BRANCH  22  23
ATOM     23  C   UNL     1      -1.255   5.321  -2.822  0.00  0.00    +0.044 C 
BRANCH  23  27
ATOM     24  C   UNL     1       2.525   6.586  -1.427  0.00  0.00    +0.172 A 
ATOM     25  C   UNL     1       1.467   6.471  -0.535  0.00  0.00    +0.172 A 
ATOM     26  C   UNL     1       0.289   5.850  -0.930  0.00  0.00    +0.036 A 
ATOM     27  C   UNL     1       0.110   5.507  -2.260  0.00  0.00    -0.018 A 
ATOM     28  C   UNL     1       1.252   5.231  -2.979  0.00  0.00    -0.001 A 
ATOM     29  C   UNL     1       2.449   5.798  -2.561  0.00  0.00    +0.040 A 
BRANCH  24  31
ATOM     30  C   UNL     1       3.805   8.284  -2.170  0.00  0.00    +0.253 C 
ATOM     31  O   UNL     1       3.449   7.627  -1.299  0.00  0.00    -0.468 OA
ENDBRANCH  24  31
BRANCH  25  32
ATOM     32  O   UNL     1       1.611   7.033   0.717  0.00  0.00    -0.468 OA
ATOM     33  C   UNL     1       0.790   8.084   1.171  0.00  0.00    +0.253 C 
ENDBRANCH  25  32
ENDBRANCH  23  27
ENDBRANCH  22  23
ENDBRANCH  20  22
ENDBRANCH  19  20
ENDBRANCH  18  19
ENDBRANCH   1  18
TORSDOF 14
ENDMDL
MODEL 5
REMARK VINA RESULT:      -7.4      3.900      8.840
REMARK  Name = 
REMARK  14 active torsions:
REMARK  status: ('A' for Active; 'I' for Inactive)
REMARK    1  A    between atoms: O_2  and  C_3
REMARK    2  A    between atoms: C_6  and  C_7
REMARK    3  A    between atoms: C_7  and  C_8
REMARK    4  A    between atoms: C_8  and  N_9
REMARK    5  A    between atoms: N_9  and  C_11
REMARK    6  A    between atoms: C_11  and  C_12
REMARK    7  A    between atoms: C_12  and  C_13
REMARK    8  A    between atoms: C_13  and  C_14
REMARK    9  A    between atoms: C_14  and  C_15
REMARK   10  A    between atoms: C_14  and  C_17
REMARK   11  A    between atoms: C_14  and  C_27
REMARK   12  A    between atoms: C_20  and  O_21
REMARK   13  A    between atoms: C_23  and  O_24
REMARK   14  A    between atoms: C_31  and  O_32
REMARK                            x       y       z     vdW  Elec       q    Type
REMARK                         _______ _______ _______ _____ _____    ______ ____
ROOT
ATOM      1  C   UNL     1       1.973   6.980  -6.494  0.00  0.00    +0.020 C 
ENDROOT
BRANCH   1   2
ATOM      2  C   UNL     1       3.114   6.007  -6.581  0.00  0.00    +0.098 C 
BRANCH   2   3
ATOM      3  C   UNL     1       4.030   6.097  -5.400  0.00  0.00    -0.006 A 
ATOM      4  C   UNL     1       3.660   5.427  -4.258  0.00  0.00    +0.037 A 
ATOM      5  C   UNL     1       3.923   5.907  -2.979  0.00  0.00    +0.172 A 
ATOM      6  C   UNL     1       4.386   7.208  -2.833  0.00  0.00    +0.172 A 
ATOM      7  C   UNL     1       4.957   7.804  -3.945  0.00  0.00    +0.040 A 
ATOM      8  C   UNL     1       4.699   7.300  -5.213  0.00  0.00    +0.000 A 
BRANCH   6   9
ATOM      9  O   UNL     1       4.540   7.770  -1.579  0.00  0.00    -0.468 OA
ATOM     10  C   UNL     1       3.724   8.868  -1.219  0.00  0.00    +0.253 C 
ENDBRANCH   6   9
BRANCH   5  11
ATOM     11  O   UNL     1       3.280   5.380  -1.855  0.00  0.00    -0.468 OA
ATOM     12  C   UNL     1       4.031   4.423  -1.111  0.00  0.00    +0.253 C 
ENDBRANCH   5  11
ENDBRANCH   2   3
BRANCH   2  13
ATOM     13  C   UNL     1       3.970   6.262  -7.810  0.00  0.00    +0.017 C 
ATOM     14  C   UNL     1       4.967   5.134  -7.976  0.00  0.00    +0.001 C 
ATOM     15  C   UNL     1       3.048   6.400  -8.992  0.00  0.00    +0.001 C 
ENDBRANCH   2  13
BRANCH   2  16
ATOM     16  C   UNL     1       2.523   4.657  -6.619  0.00  0.00    +0.075 C 
ATOM     17  N   UNL     1       2.124   3.589  -6.867  0.00  0.00    -0.196 NA
ENDBRANCH   2  16
ENDBRANCH   1   2
BRANCH   1  18
ATOM     18  C   UNL     1       0.664   6.301  -6.113  0.00  0.00    +0.019 C 
BRANCH  18  19
ATOM     19  C   UNL     1       0.002   6.995  -4.936  0.00  0.00    +0.072 C 
BRANCH  19  20
ATOM     20  N   UNL     1      -1.421   7.041  -5.156  0.00  0.00    -0.271 NA
ATOM     21  C   UNL     1      -1.935   5.881  -5.840  0.00  0.00    +0.090 C 
BRANCH  20  22
ATOM     22  C   UNL     1      -2.175   7.388  -3.978  0.00  0.00    +0.077 C 
BRANCH  22  23
ATOM     23  C   UNL     1      -2.473   6.209  -3.090  0.00  0.00    +0.044 C 
BRANCH  23  27
ATOM     24  C   UNL     1      -0.105   7.409   0.195  0.00  0.00    +0.172 A 
ATOM     25  C   UNL     1      -1.380   7.936   0.039  0.00  0.00    +0.172 A 
ATOM     26  C   UNL     1      -2.247   7.393  -0.900  0.00  0.00    +0.036 A 
ATOM     27  C   UNL     1      -1.778   6.445  -1.795  0.00  0.00    -0.018 A 
ATOM     28  C   UNL     1      -0.728   5.664  -1.364  0.00  0.00    -0.001 A 
ATOM     29  C   UNL     1       0.114   6.172  -0.383  0.00  0.00    +0.040 A 
BRANCH  24  31
ATOM     30  C   UNL     1       1.500   8.022   1.652  0.00  0.00    +0.253 C 
ATOM     31  O   UNL     1       0.939   8.210   0.669  0.00  0.00    -0.468 OA
ENDBRANCH  24  31
BRANCH  25  32
ATOM     32  O   UNL     1      -1.725   9.034   0.801  0.00  0.00    -0.468 OA
ATOM     33  C   UNL     1      -2.481   8.924   1.984  0.00  0.00    +0.253 C 
ENDBRANCH  25  32
ENDBRANCH  23  27
ENDBRANCH  22  23
ENDBRANCH  20  22
ENDBRANCH  19  20
ENDBRANCH  18  19
ENDBRANCH   1  18
TORSDOF 14
ENDMDL
MODEL 6
REMARK VINA RESULT:      -7.4      1.928      9.490
REMARK  Name = 
REMARK  14 active torsions:
REMARK  status: ('A' for Active; 'I' for Inactive)
REMARK    1  A    between atoms: O_2  and  C_3
REMARK    2  A    between atoms: C_6  and  C_7
REMARK    3  A    between atoms: C_7  and  C_8
REMARK    4  A    between atoms: C_8  and  N_9
REMARK    5  A    between atoms: N_9  and  C_11
REMARK    6  A    between atoms: C_11  and  C_12
REMARK    7  A    between atoms: C_12  and  C_13
REMARK    8  A    between atoms: C_13  and  C_14
REMARK    9  A    between atoms: C_14  and  C_15
REMARK   10  A    between atoms: C_14  and  C_17
REMARK   11  A    between atoms: C_14  and  C_27
REMARK   12  A    between atoms: C_20  and  O_21
REMARK   13  A    between atoms: C_23  and  O_24
REMARK   14  A    between atoms: C_31  and  O_32
REMARK                            x       y       z     vdW  Elec       q    Type
REMARK                         _______ _______ _______ _____ _____    ______ ____
ROOT
ATOM      1  C   UNL     1       1.835   5.116  -6.648  0.00  0.00    +0.020 C 
ENDROOT
BRANCH   1   2
ATOM      2  C   UNL     1       3.039   5.888  -7.107  0.00  0.00    +0.098 C 
BRANCH   2   3
ATOM      3  C   UNL     1       3.630   5.326  -8.363  0.00  0.00    -0.006 A 
ATOM      4  C   UNL     1       4.942   5.631  -8.639  0.00  0.00    +0.037 A 
ATOM      5  C   UNL     1       5.419   5.825  -9.930  0.00  0.00    +0.172 A 
ATOM      6  C   UNL     1       4.508   5.927 -10.973  0.00  0.00    +0.172 A 
ATOM      7  C   UNL     1       3.239   5.419 -10.756  0.00  0.00    +0.040 A 
ATOM      8  C   UNL     1       2.785   5.212  -9.460  0.00  0.00    +0.000 A 
BRANCH   6   9
ATOM      9  O   UNL     1       4.927   6.246 -12.252  0.00  0.00    -0.468 OA
ATOM     10  C   UNL     1       5.100   5.204 -13.193  0.00  0.00    +0.253 C 
ENDBRANCH   6   9
BRANCH   5  11
ATOM     11  O   UNL     1       6.658   6.428 -10.168  0.00  0.00    -0.468 OA
ATOM     12  C   UNL     1       7.798   5.656  -9.795  0.00  0.00    +0.253 C 
ENDBRANCH   5  11
ENDBRANCH   2   3
BRANCH   2  13
ATOM     13  C   UNL     1       4.144   5.869  -6.065  0.00  0.00    +0.017 C 
ATOM     14  C   UNL     1       4.148   7.179  -5.306  0.00  0.00    +0.001 C 
ATOM     15  C   UNL     1       3.910   4.681  -5.171  0.00  0.00    +0.001 C 
ENDBRANCH   2  13
BRANCH   2  16
ATOM     16  C   UNL     1       2.587   7.266  -7.374  0.00  0.00    +0.075 C 
ATOM     17  N   UNL     1       2.231   8.291  -7.803  0.00  0.00    -0.196 NA
ENDBRANCH   2  16
ENDBRANCH   1   2
BRANCH   1  18
ATOM     18  C   UNL     1       0.610   6.005  -6.480  0.00  0.00    +0.019 C 
BRANCH  18  19
ATOM     19  C   UNL     1      -0.662   5.181  -6.368  0.00  0.00    +0.072 C 
BRANCH  19  20
ATOM     20  N   UNL     1      -1.770   6.060  -6.098  0.00  0.00    -0.271 NA
ATOM     21  C   UNL     1      -3.044   5.387  -6.067  0.00  0.00    +0.090 C 
BRANCH  20  22
ATOM     22  C   UNL     1      -1.557   6.926  -4.967  0.00  0.00    +0.077 C 
BRANCH  22  23
ATOM     23  C   UNL     1      -2.561   6.727  -3.863  0.00  0.00    +0.044 C 
BRANCH  23  27
ATOM     24  C   UNL     1      -0.041   6.054  -0.541  0.00  0.00    +0.172 A 
ATOM     25  C   UNL     1      -1.304   6.597  -0.346  0.00  0.00    +0.172 A 
ATOM     26  C   UNL     1      -2.220   6.618  -1.389  0.00  0.00    +0.036 A 
ATOM     27  C   UNL     1      -1.813   6.260  -2.664  0.00  0.00    -0.018 A 
ATOM     28  C   UNL     1      -0.773   5.360  -2.743  0.00  0.00    -0.001 A 
ATOM     29  C   UNL     1       0.119   5.286  -1.681  0.00  0.00    +0.040 A 
BRANCH  24  31
ATOM     30  C   UNL     1       1.767   7.321  -0.094  0.00  0.00    +0.253 C 
ATOM     31  O   UNL     1       1.044   6.490   0.226  0.00  0.00    -0.468 OA
ENDBRANCH  24  31
BRANCH  25  32
ATOM     32  O   UNL     1      -1.587   7.151   0.885  0.00  0.00    -0.468 OA
ATOM     33  C   UNL     1      -1.892   8.517   1.046  0.00  0.00    +0.253 C 
ENDBRANCH  25  32
ENDBRANCH  23  27
ENDBRANCH  22  23
ENDBRANCH  20  22
ENDBRANCH  19  20
ENDBRANCH  18  19
ENDBRANCH   1  18
TORSDOF 14
ENDMDL
MODEL 7
REMARK VINA RESULT:      -7.4      1.458      2.067
REMARK  Name = 
REMARK  14 active torsions:
REMARK  status: ('A' for Active; 'I' for Inactive)
REMARK    1  A    between atoms: O_2  and  C_3
REMARK    2  A    between atoms: C_6  and  C_7
REMARK    3  A    between atoms: C_7  and  C_8
REMARK    4  A    between atoms: C_8  and  N_9
REMARK    5  A    between atoms: N_9  and  C_11
REMARK    6  A    between atoms: C_11  and  C_12
REMARK    7  A    between atoms: C_12  and  C_13
REMARK    8  A    between atoms: C_13  and  C_14
REMARK    9  A    between atoms: C_14  and  C_15
REMARK   10  A    between atoms: C_14  and  C_17
REMARK   11  A    between atoms: C_14  and  C_27
REMARK   12  A    between atoms: C_20  and  O_21
REMARK   13  A    between atoms: C_23  and  O_24
REMARK   14  A    between atoms: C_31  and  O_32
REMARK                            x       y       z     vdW  Elec       q    Type
REMARK                         _______ _______ _______ _____ _____    ______ ____
ROOT
ATOM      1  C   UNL     1       0.667   6.099  -8.192  0.00  0.00    +0.020 C 
ENDROOT
BRANCH   1   2
ATOM      2  C   UNL     1       1.349   5.965  -6.861  0.00  0.00    +0.098 C 
BRANCH   2   3
ATOM      3  C   UNL     1       0.460   6.366  -5.724  0.00  0.00    -0.006 A 
ATOM      4  C   UNL     1       0.898   6.094  -4.449  0.00  0.00    +0.037 A 
ATOM      5  C   UNL     1       0.041   5.736  -3.414  0.00  0.00    +0.172 A 
ATOM      6  C   UNL     1      -1.281   5.432  -3.713  0.00  0.00    +0.172 A 
ATOM      7  C   UNL     1      -1.781   5.899  -4.917  0.00  0.00    +0.040 A 
ATOM      8  C   UNL     1      -0.910   6.271  -5.933  0.00  0.00    +0.000 A 
BRANCH   6   9
ATOM      9  O   UNL     1      -2.136   4.950  -2.738  0.00  0.00    -0.468 OA
ATOM     10  C   UNL     1      -3.120   5.816  -2.206  0.00  0.00    +0.253 C 
ENDBRANCH   6   9
BRANCH   5  11
ATOM     11  O   UNL     1       0.523   5.171  -2.229  0.00  0.00    -0.468 OA
ATOM     12  C   UNL     1       0.501   6.028  -1.089  0.00  0.00    +0.253 C 
ENDBRANCH   5  11
ENDBRANCH   2   3
BRANCH   2  13
ATOM     13  C   UNL     1       2.582   6.849  -6.775  0.00  0.00    +0.017 C 
ATOM     14  C   UNL     1       3.827   5.991  -6.851  0.00  0.00    +0.001 C 
ATOM     15  C   UNL     1       2.502   7.857  -7.890  0.00  0.00    +0.001 C 
ENDBRANCH   2  13
BRANCH   2  16
ATOM     16  C   UNL     1       1.705   4.544  -6.702  0.00  0.00    +0.075 C 
ATOM     17  N   UNL     1       1.856   3.429  -6.391  0.00  0.00    -0.196 NA
ENDBRANCH   2  16
ENDBRANCH   1   2
BRANCH   1  18
ATOM     18  C   UNL     1       1.191   5.096  -9.211  0.00  0.00    +0.019 C 
BRANCH  18  19
ATOM     19  C   UNL     1       0.179   4.848 -10.317  0.00  0.00    +0.072 C 
BRANCH  19  20
ATOM     20  N   UNL     1       0.396   5.800 -11.376  0.00  0.00    -0.271 NA
ATOM     21  C   UNL     1      -0.503   6.926 -11.330  0.00  0.00    +0.090 C 
BRANCH  20  22
ATOM     22  C   UNL     1       1.776   6.180 -11.535  0.00  0.00    +0.077 C 
BRANCH  22  23
ATOM     23  C   UNL     1       2.478   5.436 -12.639  0.00  0.00    +0.044 C 
BRANCH  23  27
ATOM     24  C   UNL     1       6.688   5.708 -12.431  0.00  0.00    +0.172 A 
ATOM     25  C   UNL     1       6.053   5.806 -13.662  0.00  0.00    +0.172 A 
ATOM     26  C   UNL     1       4.673   5.940 -13.724  0.00  0.00    +0.036 A 
ATOM     27  C   UNL     1       3.920   5.799 -12.570  0.00  0.00    -0.018 A 
ATOM     28  C   UNL     1       4.544   6.135 -11.388  0.00  0.00    -0.001 A 
ATOM     29  C   UNL     1       5.929   6.062 -11.329  0.00  0.00    +0.040 A 
BRANCH  24  31
ATOM     30  C   UNL     1       8.911   5.560 -12.101  0.00  0.00    +0.253 C 
ATOM     31  O   UNL     1       7.910   5.040 -12.315  0.00  0.00    -0.468 OA
ENDBRANCH  24  31
BRANCH  25  32
ATOM     32  O   UNL     1       6.829   5.713 -14.799  0.00  0.00    -0.468 OA
ATOM     33  C   UNL     1       7.064   6.814 -15.646  0.00  0.00    +0.253 C 
ENDBRANCH  25  32
ENDBRANCH  23  27
ENDBRANCH  22  23
ENDBRANCH  20  22
ENDBRANCH  19  20
ENDBRANCH  18  19
ENDBRANCH   1  18
TORSDOF 14
ENDMDL
MODEL 8
REMARK VINA RESULT:      -7.3      2.729      8.940
REMARK  Name = 
REMARK  14 active torsions:
REMARK  status: ('A' for Active; 'I' for Inactive)
REMARK    1  A    between atoms: O_2  and  C_3
REMARK    2  A    between atoms: C_6  and  C_7
REMARK    3  A    between atoms: C_7  and  C_8
REMARK    4  A    between atoms: C_8  and  N_9
REMARK    5  A    between atoms: N_9  and  C_11
REMARK    6  A    between atoms: C_11  and  C_12
REMARK    7  A    between atoms: C_12  and  C_13
REMARK    8  A    between atoms: C_13  and  C_14
REMARK    9  A    between atoms: C_14  and  C_15
REMARK   10  A    between atoms: C_14  and  C_17
REMARK   11  A    between atoms: C_14  and  C_27
REMARK   12  A    between atoms: C_20  and  O_21
REMARK   13  A    between atoms: C_23  and  O_24
REMARK   14  A    between atoms: C_31  and  O_32
REMARK                            x       y       z     vdW  Elec       q    Type
REMARK                         _______ _______ _______ _____ _____    ______ ____
ROOT
ATOM      1  C   UNL     1       1.988   4.883  -8.046  0.00  0.00    +0.020 C 
ENDROOT
BRANCH   1   2
ATOM      2  C   UNL     1       2.254   5.871  -9.145  0.00  0.00    +0.098 C 
BRANCH   2   3
ATOM      3  C   UNL     1       1.208   5.826 -10.216  0.00  0.00    -0.006 A 
ATOM      4  C   UNL     1       1.515   5.153 -11.375  0.00  0.00    +0.037 A 
ATOM      5  C   UNL     1       1.064   5.555 -12.627  0.00  0.00    +0.172 A 
ATOM      6  C   UNL     1       0.457   6.798 -12.753  0.00  0.00    +0.172 A 
ATOM      7  C   UNL     1      -0.044   7.377 -11.600  0.00  0.00    +0.040 A 
ATOM      8  C   UNL     1       0.403   6.949 -10.357  0.00  0.00    +0.000 A 
BRANCH   6   9
ATOM      9  O   UNL     1       0.108   7.294 -13.996  0.00  0.00    -0.468 OA
ATOM     10  C   UNL     1       0.857   8.365 -14.537  0.00  0.00    +0.253 C 
ENDBRANCH   6   9
BRANCH   5  11
ATOM     11  O   UNL     1       1.629   5.052 -13.803  0.00  0.00    -0.468 OA
ATOM     12  C   UNL     1       3.047   5.164 -13.899  0.00  0.00    +0.253 C 
ENDBRANCH   5  11
ENDBRANCH   2   3
BRANCH   2  13
ATOM     13  C   UNL     1       3.583   5.598  -9.829  0.00  0.00    +0.017 C 
ATOM     14  C   UNL     1       4.284   6.909 -10.116  0.00  0.00    +0.001 C 
ATOM     15  C   UNL     1       4.384   4.695  -8.931  0.00  0.00    +0.001 C 
ENDBRANCH   2  13
BRANCH   2  16
ATOM     16  C   UNL     1       2.242   7.210  -8.529  0.00  0.00    +0.075 C 
ATOM     17  N   UNL     1       2.034   8.203  -7.953  0.00  0.00    -0.196 NA
ENDBRANCH   2  16
ENDBRANCH   1   2
BRANCH   1  18
ATOM     18  C   UNL     1       0.543   4.931  -7.566  0.00  0.00    +0.019 C 
BRANCH  18  19
ATOM     19  C   UNL     1       0.459   4.865  -6.051  0.00  0.00    +0.072 C 
BRANCH  19  20
ATOM     20  N   UNL     1      -0.259   6.016  -5.569  0.00  0.00    -0.271 NA
ATOM     21  C   UNL     1      -1.613   5.724  -5.168  0.00  0.00    +0.090 C 
BRANCH  20  22
ATOM     22  C   UNL     1       0.471   6.782  -4.591  0.00  0.00    +0.077 C 
BRANCH  22  23
ATOM     23  C   UNL     1       1.963   6.608  -4.687  0.00  0.00    +0.044 C 
BRANCH  23  27
ATOM     24  C   UNL     1       3.563   5.583  -0.915  0.00  0.00    +0.172 A 
ATOM     25  C   UNL     1       2.227   5.947  -1.018  0.00  0.00    +0.172 A 
ATOM     26  C   UNL     1       1.635   6.070  -2.268  0.00  0.00    +0.036 A 
ATOM     27  C   UNL     1       2.421   6.002  -3.406  0.00  0.00    -0.018 A 
ATOM     28  C   UNL     1       3.568   5.244  -3.313  0.00  0.00    -0.001 A 
ATOM     29  C   UNL     1       4.139   5.063  -2.060  0.00  0.00    +0.040 A 
BRANCH  24  31
ATOM     30  C   UNL     1       4.913   6.955   0.255  0.00  0.00    +0.253 C 
ATOM     31  O   UNL     1       4.320   5.974   0.193  0.00  0.00    -0.468 OA
ENDBRANCH  24  31
BRANCH  25  32
ATOM     32  O   UNL     1       1.541   6.227   0.146  0.00  0.00    -0.468 OA
ATOM     33  C   UNL     1       0.684   7.339   0.267  0.00  0.00    +0.253 C 
ENDBRANCH  25  32
ENDBRANCH  23  27
ENDBRANCH  22  23
ENDBRANCH  20  22
ENDBRANCH  19  20
ENDBRANCH  18  19
ENDBRANCH   1  18
TORSDOF 14
ENDMDL
MODEL 9
REMARK VINA RESULT:      -7.3      1.892      9.204
REMARK  Name = 
REMARK  14 active torsions:
REMARK  status: ('A' for Active; 'I' for Inactive)
REMARK    1  A    between atoms: O_2  and  C_3
REMARK    2  A    between atoms: C_6  and  C_7
REMARK    3  A    between atoms: C_7  and  C_8
REMARK    4  A    between atoms: C_8  and  N_9
REMARK    5  A    between atoms: N_9  and  C_11
REMARK    6  A    between atoms: C_11  and  C_12
REMARK    7  A    between atoms: C_12  and  C_13
REMARK    8  A    between atoms: C_13  and  C_14
REMARK    9  A    between atoms: C_14  and  C_15
REMARK   10  A    between atoms: C_14  and  C_17
REMARK   11  A    between atoms: C_14  and  C_27
REMARK   12  A    between atoms: C_20  and  O_21
REMARK   13  A    between atoms: C_23  and  O_24
REMARK   14  A    between atoms: C_31  and  O_32
REMARK                            x       y       z     vdW  Elec       q    Type
REMARK                         _______ _______ _______ _____ _____    ______ ____
ROOT
ATOM      1  C   UNL     1       3.095   5.670 -10.583  0.00  0.00    +0.020 C 
ENDROOT
BRANCH   1   2
ATOM      2  C   UNL     1       4.009   6.134  -9.485  0.00  0.00    +0.098 C 
BRANCH   2   3
ATOM      3  C   UNL     1       5.304   6.670 -10.012  0.00  0.00    -0.006 A 
ATOM      4  C   UNL     1       5.306   7.183 -11.288  0.00  0.00    +0.037 A 
ATOM      5  C   UNL     1       6.390   7.064 -12.151  0.00  0.00    +0.172 A 
ATOM      6  C   UNL     1       7.434   6.216 -11.803  0.00  0.00    +0.172 A 
ATOM      7  C   UNL     1       7.551   5.872 -10.467  0.00  0.00    +0.040 A 
ATOM      8  C   UNL     1       6.464   6.016  -9.615  0.00  0.00    +0.000 A 
BRANCH   6   9
ATOM      9  O   UNL     1       8.470   5.967 -12.685  0.00  0.00    -0.468 OA
ATOM     10  C   UNL     1       9.785   5.854 -12.177  0.00  0.00    +0.253 C 
ENDBRANCH   6   9
BRANCH   5  11
ATOM     11  O   UNL     1       6.264   7.312 -13.521  0.00  0.00    -0.468 OA
ATOM     12  C   UNL     1       5.540   6.329 -14.258  0.00  0.00    +0.253 C 
ENDBRANCH   5  11
ENDBRANCH   2   3
BRANCH   2  13
ATOM     13  C   UNL     1       4.366   4.999  -8.541  0.00  0.00    +0.017 C 
ATOM     14  C   UNL     1       4.324   5.496  -7.111  0.00  0.00    +0.001 C 
ATOM     15  C   UNL     1       3.401   3.872  -8.792  0.00  0.00    +0.001 C 
ENDBRANCH   2  13
BRANCH   2  16
ATOM     16  C   UNL     1       3.306   7.215  -8.771  0.00  0.00    +0.075 C 
ATOM     17  N   UNL     1       2.561   7.957  -8.266  0.00  0.00    -0.196 NA
ENDBRANCH   2  16
ENDBRANCH   1   2
BRANCH   1  18
ATOM     18  C   UNL     1       1.978   6.667 -10.863  0.00  0.00    +0.019 C 
BRANCH  18  19
ATOM     19  C   UNL     1       0.884   6.048 -11.715  0.00  0.00    +0.072 C 
BRANCH  19  20
ATOM     20  N   UNL     1      -0.082   5.415 -10.854  0.00  0.00    -0.271 NA
ATOM     21  C   UNL     1      -0.020   3.975 -10.880  0.00  0.00    +0.090 C 
BRANCH  20  22
ATOM     22  C   UNL     1      -0.108   5.959  -9.520  0.00  0.00    +0.077 C 
BRANCH  22  23
ATOM     23  C   UNL     1      -0.086   4.907  -8.444  0.00  0.00    +0.044 C 
BRANCH  23  27
ATOM     24  C   UNL     1      -1.343   6.030  -4.572  0.00  0.00    +0.172 A 
ATOM     25  C   UNL     1      -0.035   6.275  -4.967  0.00  0.00    +0.172 A 
ATOM     26  C   UNL     1       0.331   6.116  -6.297  0.00  0.00    +0.036 A 
ATOM     27  C   UNL     1      -0.563   5.548  -7.189  0.00  0.00    -0.018 A 
ATOM     28  C   UNL     1      -1.901   5.723  -6.908  0.00  0.00    -0.001 A 
ATOM     29  C   UNL     1      -2.276   5.941  -5.589  0.00  0.00    +0.040 A 
BRANCH  24  31
ATOM     30  C   UNL     1      -2.623   5.181  -2.925  0.00  0.00    +0.253 C 
ATOM     31  O   UNL     1      -1.625   5.635  -3.261  0.00  0.00    -0.468 OA
ENDBRANCH  24  31
BRANCH  25  32
ATOM     32  O   UNL     1       0.881   6.623  -3.995  0.00  0.00    -0.468 OA
ATOM     33  C   UNL     1       2.089   5.922  -3.811  0.00  0.00    +0.253 C 
ENDBRANCH  25  32
ENDBRANCH  23  27
ENDBRANCH  22  23
ENDBRANCH  20  22
ENDBRANCH  19  20
ENDBRANCH  18  19
ENDBRANCH   1  18
TORSDOF 14
ENDMDL
