MODEL 1
REMARK VINA RESULT:      -6.7      0.000      0.000
REMARK  Name = 
REMARK  9 active torsions:
REMARK  status: ('A' for Active; 'I' for Inactive)
REMARK    1  A    between atoms: C_3  and  C_4
REMARK    2  A    between atoms: C_4  and  C_5
REMARK    3  A    between atoms: C_5  and  C_6
REMARK    4  A    between atoms: C_6  and  C_7
REMARK    5  A    between atoms: C_13  and  N_14
REMARK    6  A    between atoms: N_14  and  C_15
REMARK    7  A    between atoms: N_14  and  C_18
REMARK    8  A    between atoms: C_15  and  C_16
REMARK    9  A    between atoms: C_18  and  C_19
REMARK                            x       y       z     vdW  Elec       q    Type
REMARK                         _______ _______ _______ _____ _____    ______ ____
ROOT
ATOM      1  C   UNL     1       1.982   5.322 -10.741  0.00  0.00    +0.132 C 
ATOM      2  N   UNL     1       3.143   5.246  -9.866  0.00  0.00    -0.313 N 
ATOM      3  C   UNL     1       3.207   4.712  -8.632  0.00  0.00    +0.079 A 
ATOM      4  C   UNL     1       4.238   5.313  -7.921  0.00  0.00    +0.100 A 
ATOM      5  C   UNL     1       4.193   5.385  -6.533  0.00  0.00    +0.035 A 
ATOM      6  C   UNL     1       3.029   5.023  -5.868  0.00  0.00    +0.050 A 
ATOM      7  C   UNL     1       2.239   4.080  -6.511  0.00  0.00    +0.016 A 
ATOM      8  N   UNL     1       5.027   5.865  -8.875  0.00  0.00    -0.231 NA
ATOM      9  C   UNL     1       2.329   3.937  -7.890  0.00  0.00    +0.020 A 
ATOM     10  C   UNL     1       4.337   5.858 -10.043  0.00  0.00    +0.120 A 
ENDROOT
BRANCH   6  11
ATOM     11  N   UNL     1       2.547   5.795  -4.760  0.00  0.00    -0.305 N 
BRANCH  11  12
ATOM     12  C   UNL     1       1.332   6.595  -4.846  0.00  0.00    +0.108 C 
BRANCH  12  13
ATOM     13  C   UNL     1       0.149   5.923  -4.215  0.00  0.00    +0.116 C 
ATOM     14 CL   UNL     1      -1.069   5.618  -5.487  0.00  0.00    -0.112 Cl
ENDBRANCH  12  13
ENDBRANCH  11  12
BRANCH  11  15
ATOM     15  C   UNL     1       3.468   5.898  -3.632  0.00  0.00    +0.108 C 
BRANCH  15  16
ATOM     16  C   UNL     1       3.597   7.385  -3.333  0.00  0.00    +0.116 C 
ATOM     17 CL   UNL     1       5.066   7.968  -4.169  0.00  0.00    -0.112 Cl
ENDBRANCH  15  16
ENDBRANCH  11  15
ENDBRANCH   6  11
BRANCH  10  18
ATOM     18  C   UNL     1       4.794   6.413 -11.333  0.00  0.00    +0.065 C 
BRANCH  18  19
ATOM     19  C   UNL     1       6.020   7.246 -11.088  0.00  0.00    +0.020 C 
BRANCH  19  20
ATOM     20  C   UNL     1       7.135   6.870 -12.041  0.00  0.00    +0.115 C 
BRANCH  20  21
ATOM     21  C   UNL     1       7.591   5.482 -11.724  0.00  0.00    +0.365 C 
ATOM     22  O   UNL     1       7.749   4.630 -12.804  0.00  0.00    -0.246 OA
ATOM     23  O   UNL     1       8.079   5.241 -10.591  0.00  0.00    -0.246 OA
ENDBRANCH  20  21
ENDBRANCH  19  20
ENDBRANCH  18  19
ENDBRANCH  10  18
TORSDOF 9
ENDMDL
MODEL 2
REMARK VINA RESULT:      -6.6      1.208      2.464
REMARK  Name = 
REMARK  9 active torsions:
REMARK  status: ('A' for Active; 'I' for Inactive)
REMARK    1  A    between atoms: C_3  and  C_4
REMARK    2  A    between atoms: C_4  and  C_5
REMARK    3  A    between atoms: C_5  and  C_6
REMARK    4  A    between atoms: C_6  and  C_7
REMARK    5  A    between atoms: C_13  and  N_14
REMARK    6  A    between atoms: N_14  and  C_15
REMARK    7  A    between atoms: N_14  and  C_18
REMARK    8  A    between atoms: C_15  and  C_16
REMARK    9  A    between atoms: C_18  and  C_19
REMARK                            x       y       z     vdW  Elec       q    Type
REMARK                         _______ _______ _______ _____ _____    ______ ____
ROOT
ATOM      1  C   UNL     1       2.367   5.407 -10.395  0.00  0.00    +0.132 C 
ATOM      2  N   UNL     1       3.384   5.246  -9.366  0.00  0.00    -0.313 N 
ATOM      3  C   UNL     1       3.237   4.695  -8.146  0.00  0.00    +0.079 A 
ATOM      4  C   UNL     1       4.192   5.219  -7.284  0.00  0.00    +0.100 A 
ATOM      5  C   UNL     1       3.954   5.278  -5.915  0.00  0.00    +0.035 A 
ATOM      6  C   UNL     1       2.686   4.986  -5.430  0.00  0.00    +0.050 A 
ATOM      7  C   UNL     1       1.938   4.104  -6.198  0.00  0.00    +0.016 A 
ATOM      8  N   UNL     1       5.143   5.729  -8.105  0.00  0.00    -0.231 NA
ATOM      9  C   UNL     1       2.215   3.971  -7.553  0.00  0.00    +0.020 A 
ATOM     10  C   UNL     1       4.627   5.780  -9.359  0.00  0.00    +0.120 A 
ENDROOT
BRANCH   6  11
ATOM     11  N   UNL     1       2.101   5.775  -4.386  0.00  0.00    -0.305 N 
BRANCH  11  12
ATOM     12  C   UNL     1       2.868   6.770  -3.647  0.00  0.00    +0.108 C 
BRANCH  12  13
ATOM     13  C   UNL     1       3.037   6.416  -2.201  0.00  0.00    +0.116 C 
ATOM     14 CL   UNL     1       4.065   4.957  -2.095  0.00  0.00    -0.112 Cl
ENDBRANCH  12  13
ENDBRANCH  11  12
BRANCH  11  15
ATOM     15  C   UNL     1       0.765   5.359  -3.972  0.00  0.00    +0.108 C 
BRANCH  15  16
ATOM     16  C   UNL     1      -0.147   6.547  -4.246  0.00  0.00    +0.116 C 
ATOM     17 CL   UNL     1      -1.065   6.177  -5.735  0.00  0.00    -0.112 Cl
ENDBRANCH  15  16
ENDBRANCH  11  15
ENDBRANCH   6  11
BRANCH  10  18
ATOM     18  C   UNL     1       5.298   6.318 -10.560  0.00  0.00    +0.065 C 
BRANCH  18  19
ATOM     19  C   UNL     1       6.780   6.115 -10.412  0.00  0.00    +0.020 C 
BRANCH  19  20
ATOM     20  C   UNL     1       7.536   6.763 -11.553  0.00  0.00    +0.115 C 
BRANCH  20  21
ATOM     21  C   UNL     1       8.333   5.713 -12.259  0.00  0.00    +0.365 C 
ATOM     22  O   UNL     1       9.708   5.880 -12.246  0.00  0.00    -0.246 OA
ATOM     23  O   UNL     1       7.783   4.622 -12.556  0.00  0.00    -0.246 OA
ENDBRANCH  20  21
ENDBRANCH  19  20
ENDBRANCH  18  19
ENDBRANCH  10  18
TORSDOF 9
ENDMDL
MODEL 3
REMARK VINA RESULT:      -6.6      4.702      8.254
REMARK  Name = 
REMARK  9 active torsions:
REMARK  status: ('A' for Active; 'I' for Inactive)
REMARK    1  A    between atoms: C_3  and  C_4
REMARK    2  A    between atoms: C_4  and  C_5
REMARK    3  A    between atoms: C_5  and  C_6
REMARK    4  A    between atoms: C_6  and  C_7
REMARK    5  A    between atoms: C_13  and  N_14
REMARK    6  A    between atoms: N_14  and  C_15
REMARK    7  A    between atoms: N_14  and  C_18
REMARK    8  A    between atoms: C_15  and  C_16
REMARK    9  A    between atoms: C_18  and  C_19
REMARK                            x       y       z     vdW  Elec       q    Type
REMARK                         _______ _______ _______ _____ _____    ______ ____
ROOT
ATOM      1  C   UNL     1       2.796   7.028  -4.035  0.00  0.00    +0.132 C 
ATOM      2  N   UNL     1       2.488   5.828  -4.799  0.00  0.00    -0.313 N 
ATOM      3  C   UNL     1       3.203   5.291  -5.806  0.00  0.00    +0.079 A 
ATOM      4  C   UNL     1       2.361   4.551  -6.628  0.00  0.00    +0.100 A 
ATOM      5  C   UNL     1       2.667   4.365  -7.971  0.00  0.00    +0.035 A 
ATOM      6  C   UNL     1       3.718   5.075  -8.537  0.00  0.00    +0.050 A 
ATOM      7  C   UNL     1       4.737   5.433  -7.666  0.00  0.00    +0.016 A 
ATOM      8  N   UNL     1       1.271   4.308  -5.859  0.00  0.00    -0.231 NA
ATOM      9  C   UNL     1       4.470   5.546  -6.307  0.00  0.00    +0.020 A 
ATOM     10  C   UNL     1       1.337   5.118  -4.773  0.00  0.00    +0.120 A 
ENDROOT
BRANCH   6  11
ATOM     11  N   UNL     1       3.595   5.647  -9.846  0.00  0.00    -0.305 N 
BRANCH  11  12
ATOM     12  C   UNL     1       4.746   5.828 -10.721  0.00  0.00    +0.108 C 
BRANCH  12  13
ATOM     13  C   UNL     1       5.144   7.266 -10.866  0.00  0.00    +0.116 C 
ATOM     14 CL   UNL     1       6.930   7.358 -10.881  0.00  0.00    -0.112 Cl
ENDBRANCH  12  13
ENDBRANCH  11  12
BRANCH  11  15
ATOM     15  C   UNL     1       2.291   6.230 -10.145  0.00  0.00    +0.108 C 
BRANCH  15  16
ATOM     16  C   UNL     1       1.827   5.574 -11.438  0.00  0.00    +0.116 C 
ATOM     17 CL   UNL     1       0.342   4.652 -11.060  0.00  0.00    -0.112 Cl
ENDBRANCH  15  16
ENDBRANCH  11  15
ENDBRANCH   6  11
BRANCH  10  18
ATOM     18  C   UNL     1       0.329   5.226  -3.699  0.00  0.00    +0.065 C 
BRANCH  18  19
ATOM     19  C   UNL     1      -0.962   5.709  -4.300  0.00  0.00    +0.020 C 
BRANCH  19  20
ATOM     20  C   UNL     1      -1.680   6.655  -3.362  0.00  0.00    +0.115 C 
BRANCH  20  21
ATOM     21  C   UNL     1      -2.933   5.996  -2.880  0.00  0.00    +0.365 C 
ATOM     22  O   UNL     1      -2.881   4.620  -2.737  0.00  0.00    -0.246 OA
ATOM     23  O   UNL     1      -3.835   6.701  -2.359  0.00  0.00    -0.246 OA
ENDBRANCH  20  21
ENDBRANCH  19  20
ENDBRANCH  18  19
ENDBRANCH  10  18
TORSDOF 9
ENDMDL
MODEL 4
REMARK VINA RESULT:      -6.4      4.726      7.739
REMARK  Name = 
REMARK  9 active torsions:
REMARK  status: ('A' for Active; 'I' for Inactive)
REMARK    1  A    between atoms: C_3  and  C_4
REMARK    2  A    between atoms: C_4  and  C_5
REMARK    3  A    between atoms: C_5  and  C_6
REMARK    4  A    between atoms: C_6  and  C_7
REMARK    5  A    between atoms: C_13  and  N_14
REMARK    6  A    between atoms: N_14  and  C_15
REMARK    7  A    between atoms: N_14  and  C_18
REMARK    8  A    between atoms: C_15  and  C_16
REMARK    9  A    between atoms: C_18  and  C_19
REMARK                            x       y       z     vdW  Elec       q    Type
REMARK                         _______ _______ _______ _____ _____    ______ ____
ROOT
ATOM      1  C   UNL     1       2.954   6.862  -4.715  0.00  0.00    +0.132 C 
ATOM      2  N   UNL     1       2.550   5.816  -5.644  0.00  0.00    -0.313 N 
ATOM      3  C   UNL     1       3.260   5.314  -6.673  0.00  0.00    +0.079 A 
ATOM      4  C   UNL     1       2.390   4.801  -7.627  0.00  0.00    +0.100 A 
ATOM      5  C   UNL     1       2.763   4.739  -8.965  0.00  0.00    +0.035 A 
ATOM      6  C   UNL     1       3.933   5.365  -9.377  0.00  0.00    +0.050 A 
ATOM      7  C   UNL     1       4.927   5.473  -8.414  0.00  0.00    +0.016 A 
ATOM      8  N   UNL     1       1.226   4.616  -6.957  0.00  0.00    -0.231 NA
ATOM      9  C   UNL     1       4.581   5.454  -7.068  0.00  0.00    +0.020 A 
ATOM     10  C   UNL     1       1.319   5.271  -5.772  0.00  0.00    +0.120 A 
ENDROOT
BRANCH   6  11
ATOM     11  N   UNL     1       3.977   6.103 -10.605  0.00  0.00    -0.305 N 
BRANCH  11  12
ATOM     12  C   UNL     1       3.435   5.568 -11.848  0.00  0.00    +0.108 C 
BRANCH  12  13
ATOM     13  C   UNL     1       2.201   6.289 -12.301  0.00  0.00    +0.116 C 
ATOM     14 CL   UNL     1       0.800   5.201 -12.079  0.00  0.00    -0.112 Cl
ENDBRANCH  12  13
ENDBRANCH  11  12
BRANCH  11  15
ATOM     15  C   UNL     1       4.791   7.314 -10.570  0.00  0.00    +0.108 C 
BRANCH  15  16
ATOM     16  C   UNL     1       5.916   7.091 -11.570  0.00  0.00    +0.116 C 
ATOM     17 CL   UNL     1       7.451   7.104 -10.652  0.00  0.00    -0.112 Cl
ENDBRANCH  15  16
ENDBRANCH  11  15
ENDBRANCH   6  11
BRANCH  10  18
ATOM     18  C   UNL     1       0.260   5.382  -4.748  0.00  0.00    +0.065 C 
BRANCH  18  19
ATOM     19  C   UNL     1      -0.840   6.253  -5.290  0.00  0.00    +0.020 C 
BRANCH  19  20
ATOM     20  C   UNL     1      -2.200   5.644  -5.023  0.00  0.00    +0.115 C 
BRANCH  20  21
ATOM     21  C   UNL     1      -2.489   5.737  -3.559  0.00  0.00    +0.365 C 
ATOM     22  O   UNL     1      -2.689   7.012  -3.056  0.00  0.00    -0.246 OA
ATOM     23  O   UNL     1      -2.824   4.699  -2.933  0.00  0.00    -0.246 OA
ENDBRANCH  20  21
ENDBRANCH  19  20
ENDBRANCH  18  19
ENDBRANCH  10  18
TORSDOF 9
ENDMDL
MODEL 5
REMARK VINA RESULT:      -6.2      4.729      8.235
REMARK  Name = 
REMARK  9 active torsions:
REMARK  status: ('A' for Active; 'I' for Inactive)
REMARK    1  A    between atoms: C_3  and  C_4
REMARK    2  A    between atoms: C_4  and  C_5
REMARK    3  A    between atoms: C_5  and  C_6
REMARK    4  A    between atoms: C_6  and  C_7
REMARK    5  A    between atoms: C_13  and  N_14
REMARK    6  A    between atoms: N_14  and  C_15
REMARK    7  A    between atoms: N_14  and  C_18
REMARK    8  A    between atoms: C_15  and  C_16
REMARK    9  A    between atoms: C_18  and  C_19
REMARK                            x       y       z     vdW  Elec       q    Type
REMARK                         _______ _______ _______ _____ _____    ______ ____
ROOT
ATOM      1  C   UNL     1      -3.078   4.905  -3.900  0.00  0.00    +0.132 C 
ATOM      2  N   UNL     1      -2.245   6.019  -4.331  0.00  0.00    -0.313 N 
ATOM      3  C   UNL     1      -1.571   6.138  -5.491  0.00  0.00    +0.079 A 
ATOM      4  C   UNL     1      -0.491   6.993  -5.312  0.00  0.00    +0.100 A 
ATOM      5  C   UNL     1       0.644   6.875  -6.107  0.00  0.00    +0.035 A 
ATOM      6  C   UNL     1       0.775   5.781  -6.953  0.00  0.00    +0.050 A 
ATOM      7  C   UNL     1      -0.415   5.229  -7.407  0.00  0.00    +0.016 A 
ATOM      8  N   UNL     1      -0.798   7.692  -4.192  0.00  0.00    -0.231 NA
ATOM      9  C   UNL     1      -1.579   5.406  -6.668  0.00  0.00    +0.020 A 
ATOM     10  C   UNL     1      -1.837   7.069  -3.583  0.00  0.00    +0.120 A 
ENDROOT
BRANCH   6  11
ATOM     11  N   UNL     1       2.031   5.105  -7.089  0.00  0.00    -0.305 N 
BRANCH  11  12
ATOM     12  C   UNL     1       3.185   5.446  -6.267  0.00  0.00    +0.108 C 
BRANCH  12  13
ATOM     13  C   UNL     1       3.281   4.611  -5.026  0.00  0.00    +0.116 C 
ATOM     14 CL   UNL     1       4.856   4.939  -4.246  0.00  0.00    -0.112 Cl
ENDBRANCH  12  13
ENDBRANCH  11  12
BRANCH  11  15
ATOM     15  C   UNL     1       2.134   4.219  -8.245  0.00  0.00    +0.108 C 
BRANCH  15  16
ATOM     16  C   UNL     1       3.575   4.327  -8.727  0.00  0.00    +0.116 C 
ATOM     17 CL   UNL     1       3.576   5.411 -10.149  0.00  0.00    -0.112 Cl
ENDBRANCH  15  16
ENDBRANCH  11  15
ENDBRANCH   6  11
BRANCH  10  18
ATOM     18  C   UNL     1      -2.461   7.457  -2.301  0.00  0.00    +0.065 C 
BRANCH  18  19
ATOM     19  C   UNL     1      -1.409   7.424  -1.228  0.00  0.00    +0.020 C 
BRANCH  19  20
ATOM     20  C   UNL     1      -1.238   6.025  -0.675  0.00  0.00    +0.115 C 
BRANCH  20  21
ATOM     21  C   UNL     1       0.117   5.520  -1.055  0.00  0.00    +0.365 C 
ATOM     22  O   UNL     1       1.154   5.852  -0.199  0.00  0.00    -0.246 OA
ATOM     23  O   UNL     1       0.213   4.611  -1.918  0.00  0.00    -0.246 OA
ENDBRANCH  20  21
ENDBRANCH  19  20
ENDBRANCH  18  19
ENDBRANCH  10  18
TORSDOF 9
ENDMDL
MODEL 6
REMARK VINA RESULT:      -6.1      3.529      4.041
REMARK  Name = 
REMARK  9 active torsions:
REMARK  status: ('A' for Active; 'I' for Inactive)
REMARK    1  A    between atoms: C_3  and  C_4
REMARK    2  A    between atoms: C_4  and  C_5
REMARK    3  A    between atoms: C_5  and  C_6
REMARK    4  A    between atoms: C_6  and  C_7
REMARK    5  A    between atoms: C_13  and  N_14
REMARK    6  A    between atoms: N_14  and  C_15
REMARK    7  A    between atoms: N_14  and  C_18
REMARK    8  A    between atoms: C_15  and  C_16
REMARK    9  A    between atoms: C_18  and  C_19
REMARK                            x       y       z     vdW  Elec       q    Type
REMARK                         _______ _______ _______ _____ _____    ______ ____
ROOT
ATOM      1  C   UNL     1       0.031   4.190 -10.765  0.00  0.00    +0.132 C 
ATOM      2  N   UNL     1       0.874   5.262 -10.257  0.00  0.00    -0.313 N 
ATOM      3  C   UNL     1       1.754   5.202  -9.240  0.00  0.00    +0.079 A 
ATOM      4  C   UNL     1       1.917   6.470  -8.694  0.00  0.00    +0.100 A 
ATOM      5  C   UNL     1       2.290   6.625  -7.363  0.00  0.00    +0.035 A 
ATOM      6  C   UNL     1       2.315   5.515  -6.528  0.00  0.00    +0.050 A 
ATOM      7  C   UNL     1       2.565   4.301  -7.151  0.00  0.00    +0.016 A 
ATOM      8  N   UNL     1       1.477   7.311  -9.661  0.00  0.00    -0.231 NA
ATOM      9  C   UNL     1       2.275   4.151  -8.502  0.00  0.00    +0.020 A 
ATOM     10  C   UNL     1       0.809   6.573 -10.583  0.00  0.00    +0.120 A 
ENDROOT
BRANCH   6  11
ATOM     11  N   UNL     1       1.819   5.597  -5.185  0.00  0.00    -0.305 N 
BRANCH  11  12
ATOM     12  C   UNL     1       0.531   5.035  -4.802  0.00  0.00    +0.108 C 
BRANCH  12  13
ATOM     13  C   UNL     1      -0.628   5.852  -5.289  0.00  0.00    +0.116 C 
ATOM     14 CL   UNL     1      -1.176   5.178  -6.851  0.00  0.00    -0.112 Cl
ENDBRANCH  12  13
ENDBRANCH  11  12
BRANCH  11  15
ATOM     15  C   UNL     1       2.583   6.467  -4.296  0.00  0.00    +0.108 C 
BRANCH  15  16
ATOM     16  C   UNL     1       3.195   5.554  -3.243  0.00  0.00    +0.116 C 
ATOM     17 CL   UNL     1       4.700   4.881  -3.936  0.00  0.00    -0.112 Cl
ENDBRANCH  15  16
ENDBRANCH  11  15
ENDBRANCH   6  11
BRANCH  10  18
ATOM     18  C   UNL     1       0.115   7.089 -11.781  0.00  0.00    +0.065 C 
BRANCH  18  19
ATOM     19  C   UNL     1       1.001   6.875 -12.976  0.00  0.00    +0.020 C 
BRANCH  19  20
ATOM     20  C   UNL     1       0.582   7.760 -14.132  0.00  0.00    +0.115 C 
BRANCH  20  21
ATOM     21  C   UNL     1       0.981   7.099 -15.412  0.00  0.00    +0.365 C 
ATOM     22  O   UNL     1       2.319   7.195 -15.757  0.00  0.00    -0.246 OA
ATOM     23  O   UNL     1       0.200   6.269 -15.943  0.00  0.00    -0.246 OA
ENDBRANCH  20  21
ENDBRANCH  19  20
ENDBRANCH  18  19
ENDBRANCH  10  18
TORSDOF 9
ENDMDL
MODEL 7
REMARK VINA RESULT:      -6.1      4.209      6.951
REMARK  Name = 
REMARK  9 active torsions:
REMARK  status: ('A' for Active; 'I' for Inactive)
REMARK    1  A    between atoms: C_3  and  C_4
REMARK    2  A    between atoms: C_4  and  C_5
REMARK    3  A    between atoms: C_5  and  C_6
REMARK    4  A    between atoms: C_6  and  C_7
REMARK    5  A    between atoms: C_13  and  N_14
REMARK    6  A    between atoms: N_14  and  C_15
REMARK    7  A    between atoms: N_14  and  C_18
REMARK    8  A    between atoms: C_15  and  C_16
REMARK    9  A    between atoms: C_18  and  C_19
REMARK                            x       y       z     vdW  Elec       q    Type
REMARK                         _______ _______ _______ _____ _____    ______ ____
ROOT
ATOM      1  C   UNL     1       4.521   4.386  -4.401  0.00  0.00    +0.132 C 
ATOM      2  N   UNL     1       3.879   5.612  -4.853  0.00  0.00    -0.313 N 
ATOM      3  C   UNL     1       2.882   5.733  -5.751  0.00  0.00    +0.079 A 
ATOM      4  C   UNL     1       2.936   6.994  -6.332  0.00  0.00    +0.100 A 
ATOM      5  C   UNL     1       2.437   7.205  -7.613  0.00  0.00    +0.035 A 
ATOM      6  C   UNL     1       2.056   6.114  -8.385  0.00  0.00    +0.050 A 
ATOM      7  C   UNL     1       1.626   5.000  -7.679  0.00  0.00    +0.016 A 
ATOM      8  N   UNL     1       3.675   7.732  -5.468  0.00  0.00    -0.231 NA
ATOM      9  C   UNL     1       2.048   4.814  -6.368  0.00  0.00    +0.020 A 
ATOM     10  C   UNL     1       4.276   6.880  -4.601  0.00  0.00    +0.120 A 
ENDROOT
BRANCH   6  11
ATOM     11  N   UNL     1       2.379   6.056  -9.781  0.00  0.00    -0.305 N 
BRANCH  11  12
ATOM     12  C   UNL     1       1.487   5.441 -10.755  0.00  0.00    +0.108 C 
BRANCH  12  13
ATOM     13  C   UNL     1       1.088   6.382 -11.852  0.00  0.00    +0.116 C 
ATOM     14 CL   UNL     1      -0.343   7.306 -11.309  0.00  0.00    -0.112 Cl
ENDBRANCH  12  13
ENDBRANCH  11  12
BRANCH  11  15
ATOM     15  C   UNL     1       3.744   6.450 -10.116  0.00  0.00    +0.108 C 
BRANCH  15  16
ATOM     16  C   UNL     1       4.583   5.184 -10.004  0.00  0.00    +0.116 C 
ATOM     17 CL   UNL     1       5.475   5.276  -8.457  0.00  0.00    -0.112 Cl
ENDBRANCH  15  16
ENDBRANCH  11  15
ENDBRANCH   6  11
BRANCH  10  18
ATOM     18  C   UNL     1       5.217   7.248  -3.523  0.00  0.00    +0.065 C 
BRANCH  18  19
ATOM     19  C   UNL     1       4.423   7.644  -2.309  0.00  0.00    +0.020 C 
BRANCH  19  20
ATOM     20  C   UNL     1       4.402   6.531  -1.284  0.00  0.00    +0.115 C 
BRANCH  20  21
ATOM     21  C   UNL     1       3.017   5.973  -1.208  0.00  0.00    +0.365 C 
ATOM     22  O   UNL     1       2.054   6.628  -1.956  0.00  0.00    -0.246 OA
ATOM     23  O   UNL     1       2.847   4.817  -0.742  0.00  0.00    -0.246 OA
ENDBRANCH  20  21
ENDBRANCH  19  20
ENDBRANCH  18  19
ENDBRANCH  10  18
TORSDOF 9
ENDMDL
MODEL 8
REMARK VINA RESULT:      -6.1      1.861      3.138
REMARK  Name = 
REMARK  9 active torsions:
REMARK  status: ('A' for Active; 'I' for Inactive)
REMARK    1  A    between atoms: C_3  and  C_4
REMARK    2  A    between atoms: C_4  and  C_5
REMARK    3  A    between atoms: C_5  and  C_6
REMARK    4  A    between atoms: C_6  and  C_7
REMARK    5  A    between atoms: C_13  and  N_14
REMARK    6  A    between atoms: N_14  and  C_15
REMARK    7  A    between atoms: N_14  and  C_18
REMARK    8  A    between atoms: C_15  and  C_16
REMARK    9  A    between atoms: C_18  and  C_19
REMARK                            x       y       z     vdW  Elec       q    Type
REMARK                         _______ _______ _______ _____ _____    ______ ____
ROOT
ATOM      1  C   UNL     1       1.479   6.882 -10.053  0.00  0.00    +0.132 C 
ATOM      2  N   UNL     1       1.776   5.702  -9.253  0.00  0.00    -0.313 N 
ATOM      3  C   UNL     1       1.003   5.139  -8.306  0.00  0.00    +0.079 A 
ATOM      4  C   UNL     1       1.805   4.445  -7.408  0.00  0.00    +0.100 A 
ATOM      5  C   UNL     1       1.393   4.252  -6.094  0.00  0.00    +0.035 A 
ATOM      6  C   UNL     1       0.266   4.915  -5.627  0.00  0.00    +0.050 A 
ATOM      7  C   UNL     1      -0.691   5.220  -6.585  0.00  0.00    +0.016 A 
ATOM      8  N   UNL     1       2.967   4.249  -8.078  0.00  0.00    -0.231 NA
ATOM      9  C   UNL     1      -0.313   5.336  -7.918  0.00  0.00    +0.020 A 
ATOM     10  C   UNL     1       2.957   5.048  -9.174  0.00  0.00    +0.120 A 
ENDROOT
BRANCH   6  11
ATOM     11  N   UNL     1       0.249   5.500  -4.318  0.00  0.00    -0.305 N 
BRANCH  11  12
ATOM     12  C   UNL     1       1.475   5.830  -3.603  0.00  0.00    +0.108 C 
BRANCH  12  13
ATOM     13  C   UNL     1       2.224   6.968  -4.228  0.00  0.00    +0.116 C 
ATOM     14 CL   UNL     1       3.856   6.391  -4.675  0.00  0.00    -0.112 Cl
ENDBRANCH  12  13
ENDBRANCH  11  12
BRANCH  11  15
ATOM     15  C   UNL     1      -1.060   5.533  -3.673  0.00  0.00    +0.108 C 
BRANCH  15  16
ATOM     16  C   UNL     1      -1.238   6.956  -3.161  0.00  0.00    +0.116 C 
ATOM     17 CL   UNL     1      -1.598   7.986  -4.577  0.00  0.00    -0.112 Cl
ENDBRANCH  15  16
ENDBRANCH  11  15
ENDBRANCH   6  11
BRANCH  10  18
ATOM     18  C   UNL     1       4.047   5.196 -10.159  0.00  0.00    +0.065 C 
BRANCH  18  19
ATOM     19  C   UNL     1       5.038   6.195  -9.629  0.00  0.00    +0.020 C 
BRANCH  19  20
ATOM     20  C   UNL     1       6.454   5.809 -10.002  0.00  0.00    +0.115 C 
BRANCH  20  21
ATOM     21  C   UNL     1       6.964   6.778 -11.020  0.00  0.00    +0.365 C 
ATOM     22  O   UNL     1       6.261   7.965 -11.138  0.00  0.00    -0.246 OA
ATOM     23  O   UNL     1       8.121   6.623 -11.488  0.00  0.00    -0.246 OA
ENDBRANCH  20  21
ENDBRANCH  19  20
ENDBRANCH  18  19
ENDBRANCH  10  18
TORSDOF 9
ENDMDL
MODEL 9
REMARK VINA RESULT:      -6.1      4.721      8.092
REMARK  Name = 
REMARK  9 active torsions:
REMARK  status: ('A' for Active; 'I' for Inactive)
REMARK    1  A    between atoms: C_3  and  C_4
REMARK    2  A    between atoms: C_4  and  C_5
REMARK    3  A    between atoms: C_5  and  C_6
REMARK    4  A    between atoms: C_6  and  C_7
REMARK    5  A    between atoms: C_13  and  N_14
REMARK    6  A    between atoms: N_14  and  C_15
REMARK    7  A    between atoms: N_14  and  C_18
REMARK    8  A    between atoms: C_15  and  C_16
REMARK    9  A    between atoms: C_18  and  C_19
REMARK                            x       y       z     vdW  Elec       q    Type
REMARK                         _______ _______ _______ _____ _____    ______ ____
ROOT
ATOM      1  C   UNL     1      -3.127   4.835  -4.043  0.00  0.00    +0.132 C 
ATOM      2  N   UNL     1      -2.293   5.975  -4.398  0.00  0.00    -0.313 N 
ATOM      3  C   UNL     1      -1.556   6.136  -5.513  0.00  0.00    +0.079 A 
ATOM      4  C   UNL     1      -0.505   7.006  -5.251  0.00  0.00    +0.100 A 
ATOM      5  C   UNL     1       0.676   6.929  -5.981  0.00  0.00    +0.035 A 
ATOM      6  C   UNL     1       0.876   5.861  -6.847  0.00  0.00    +0.050 A 
ATOM      7  C   UNL     1      -0.275   5.300  -7.382  0.00  0.00    +0.016 A 
ATOM      8  N   UNL     1      -0.889   7.670  -4.133  0.00  0.00    -0.231 NA
ATOM      9  C   UNL     1      -1.482   5.436  -6.707  0.00  0.00    +0.020 A 
ATOM     10  C   UNL     1      -1.948   7.012  -3.600  0.00  0.00    +0.120 A 
ENDROOT
BRANCH   6  11
ATOM     11  N   UNL     1       2.151   5.212  -6.927  0.00  0.00    -0.305 N 
BRANCH  11  12
ATOM     12  C   UNL     1       2.348   3.988  -7.694  0.00  0.00    +0.108 C 
BRANCH  12  13
ATOM     13  C   UNL     1       3.338   4.154  -8.807  0.00  0.00    +0.116 C 
ATOM     14 CL   UNL     1       2.615   5.217 -10.050  0.00  0.00    -0.112 Cl
ENDBRANCH  12  13
ENDBRANCH  11  12
BRANCH  11  15
ATOM     15  C   UNL     1       3.167   5.731  -6.017  0.00  0.00    +0.108 C 
BRANCH  15  16
ATOM     16  C   UNL     1       3.368   4.657  -4.957  0.00  0.00    +0.116 C 
ATOM     17 CL   UNL     1       3.305   5.468  -3.365  0.00  0.00    -0.112 Cl
ENDBRANCH  15  16
ENDBRANCH  11  15
ENDBRANCH   6  11
BRANCH  10  18
ATOM     18  C   UNL     1      -2.652   7.355  -2.347  0.00  0.00    +0.065 C 
BRANCH  18  19
ATOM     19  C   UNL     1      -1.637   7.470  -1.245  0.00  0.00    +0.020 C 
BRANCH  19  20
ATOM     20  C   UNL     1      -1.391   6.129  -0.587  0.00  0.00    +0.115 C 
BRANCH  20  21
ATOM     21  C   UNL     1      -0.015   5.664  -0.942  0.00  0.00    +0.365 C 
ATOM     22  O   UNL     1       0.063   4.662  -1.894  0.00  0.00    -0.246 OA
ATOM     23  O   UNL     1       0.973   6.367  -0.612  0.00  0.00    -0.246 OA
ENDBRANCH  20  21
ENDBRANCH  19  20
ENDBRANCH  18  19
ENDBRANCH  10  18
TORSDOF 9
ENDMDL
