MODEL 1
REMARK VINA RESULT:      -9.4      0.000      0.000
REMARK  Name = 
REMARK  8 active torsions:
REMARK  status: ('A' for Active; 'I' for Inactive)
REMARK    1  A    between atoms: C_2  and  C_3
REMARK    2  A    between atoms: C_3  and  C_4
REMARK    3  A    between atoms: C_6  and  C_7
REMARK    4  A    between atoms: C_11  and  C_12
REMARK    5  A    between atoms: N_15  and  C_16
REMARK    6  A    between atoms: C_16  and  C_17
REMARK    7  A    between atoms: C_20  and  C_21
REMARK    8  A    between atoms: C_26  and  C_27
REMARK                            x       y       z     vdW  Elec       q    Type
REMARK                         _______ _______ _______ _____ _____    ______ ____
ROOT
ATOM      1  C   UNL     1       2.541   4.495  -7.220  0.00  0.00    +0.000 A 
ATOM      2  C   UNL     1       3.436   5.508  -6.918  0.00  0.00    -0.002 A 
ATOM      3  C   UNL     1       4.198   5.994  -7.964  0.00  0.00    -0.000 A 
ATOM      4  C   UNL     1       4.338   5.308  -9.166  0.00  0.00    -0.001 A 
ATOM      5  C   UNL     1       3.799   4.051  -9.208  0.00  0.00    -0.000 A 
ATOM      6  C   UNL     1       2.713   3.786  -8.382  0.00  0.00    -0.002 A 
ENDROOT
BRANCH   4   7
ATOM      7  C   UNL     1       5.506   5.716  -9.961  0.00  0.00    -0.006 A 
ATOM      8  C   UNL     1       5.226   6.608 -10.991  0.00  0.00    -0.015 A 
ATOM      9  C   UNL     1       6.125   7.640 -11.241  0.00  0.00    -0.007 A 
ATOM     10  C   UNL     1       7.369   7.684 -10.623  0.00  0.00    -0.001 A 
ATOM     11  C   UNL     1       7.789   6.527  -9.976  0.00  0.00    -0.000 A 
ATOM     12  C   UNL     1       6.773   5.781  -9.390  0.00  0.00    -0.001 A 
BRANCH   8  13
ATOM     13  C   UNL     1       4.206   6.193 -11.932  0.00  0.00    +0.044 A 
ATOM     14  N   UNL     1       4.515   5.609 -13.116  0.00  0.00    -0.289 NA
ATOM     15  N   UNL     1       3.438   4.987 -13.544  0.00  0.00    -0.218 NA
ATOM     16  N   UNL     1       2.427   5.531 -12.870  0.00  0.00    -0.218 NA
ATOM     17  N   UNL     1       2.895   6.417 -11.991  0.00  0.00    -0.289 NA
ENDBRANCH   8  13
ENDBRANCH   4   7
BRANCH   1  18
ATOM     18  C   UNL     1       1.663   4.049  -6.105  0.00  0.00    +0.134 C 
BRANCH  18  20
ATOM     19  C   UNL     1      -0.525   5.099  -6.586  0.00  0.00    +0.120 A 
ATOM     20  N   UNL     1       0.595   4.980  -5.832  0.00  0.00    -0.306 N 
ATOM     21  C   UNL     1       0.379   5.644  -4.676  0.00  0.00    +0.158 A 
ATOM     22  C   UNL     1      -0.879   6.229  -4.744  0.00  0.00    +0.110 A 
ATOM     23  N   UNL     1      -1.484   5.583  -5.772  0.00  0.00    -0.233 NA
BRANCH  22  24
ATOM     24  C   UNL     1      -1.635   6.706  -3.553  0.00  0.00    +0.163 C 
ATOM     25  O   UNL     1      -0.864   6.457  -2.424  0.00  0.00    -0.220 OA
ATOM     26  C   UNL     1      -1.973   8.180  -3.659  0.00  0.00    +0.039 C 
ATOM     27  C   UNL     1      -2.950   5.941  -3.462  0.00  0.00    +0.039 C 
ENDBRANCH  22  24
BRANCH  21  28
ATOM     28  C   UNL     1       1.460   6.053  -3.776  0.00  0.00    +0.405 C 
ATOM     29  O   UNL     1       2.242   7.174  -4.070  0.00  0.00    -0.239 OA
ATOM     30  O   UNL     1       1.919   5.287  -2.885  0.00  0.00    -0.239 OA
ENDBRANCH  21  28
BRANCH  19  31
ATOM     31  C   UNL     1      -0.585   4.972  -8.076  0.00  0.00    +0.064 C 
BRANCH  31  33
ATOM     32  C   UNL     1       0.006   5.975 -10.210  0.00  0.00    +0.000 C 
ATOM     33  C   UNL     1       0.051   6.202  -8.708  0.00  0.00    +0.008 C 
ENDBRANCH  31  33
ENDBRANCH  19  31
ENDBRANCH  18  20
ENDBRANCH   1  18
TORSDOF 8
ENDMDL
MODEL 2
REMARK VINA RESULT:      -9.3      3.275      8.621
REMARK  Name = 
REMARK  8 active torsions:
REMARK  status: ('A' for Active; 'I' for Inactive)
REMARK    1  A    between atoms: C_2  and  C_3
REMARK    2  A    between atoms: C_3  and  C_4
REMARK    3  A    between atoms: C_6  and  C_7
REMARK    4  A    between atoms: C_11  and  C_12
REMARK    5  A    between atoms: N_15  and  C_16
REMARK    6  A    between atoms: C_16  and  C_17
REMARK    7  A    between atoms: C_20  and  C_21
REMARK    8  A    between atoms: C_26  and  C_27
REMARK                            x       y       z     vdW  Elec       q    Type
REMARK                         _______ _______ _______ _____ _____    ______ ____
ROOT
ATOM      1  C   UNL     1       2.222   4.496  -7.847  0.00  0.00    +0.000 A 
ATOM      2  C   UNL     1       1.359   5.479  -8.305  0.00  0.00    -0.002 A 
ATOM      3  C   UNL     1       0.501   6.033  -7.372  0.00  0.00    -0.000 A 
ATOM      4  C   UNL     1       0.248   5.433  -6.143  0.00  0.00    -0.001 A 
ATOM      5  C   UNL     1       0.780   4.186  -5.961  0.00  0.00    -0.000 A 
ATOM      6  C   UNL     1       1.940   3.870  -6.659  0.00  0.00    -0.002 A 
ENDROOT
BRANCH   4   7
ATOM      7  C   UNL     1      -0.990   5.888  -5.493  0.00  0.00    -0.006 A 
ATOM      8  C   UNL     1      -0.799   6.667  -4.357  0.00  0.00    -0.015 A 
ATOM      9  C   UNL     1      -1.636   7.758  -4.149  0.00  0.00    -0.007 A 
ATOM     10  C   UNL     1      -2.763   7.969  -4.935  0.00  0.00    -0.001 A 
ATOM     11  C   UNL     1      -3.173   6.911  -5.739  0.00  0.00    -0.000 A 
ATOM     12  C   UNL     1      -2.145   6.118  -6.235  0.00  0.00    -0.001 A 
BRANCH   8  13
ATOM     13  C   UNL     1       0.027   6.086  -3.319  0.00  0.00    +0.044 A 
ATOM     14  N   UNL     1      -0.470   5.211  -2.410  0.00  0.00    -0.289 NA
ATOM     15  N   UNL     1       0.546   4.559  -1.890  0.00  0.00    -0.218 NA
ATOM     16  N   UNL     1       1.616   5.304  -2.157  0.00  0.00    -0.218 NA
ATOM     17  N   UNL     1       1.260   6.355  -2.897  0.00  0.00    -0.289 NA
ENDBRANCH   8  13
ENDBRANCH   4   7
BRANCH   1  18
ATOM     18  C   UNL     1       3.201   3.979  -8.839  0.00  0.00    +0.134 C 
BRANCH  18  20
ATOM     19  C   UNL     1       5.255   5.214  -8.223  0.00  0.00    +0.120 A 
ATOM     20  N   UNL     1       4.270   4.911  -9.104  0.00  0.00    -0.306 N 
ATOM     21  C   UNL     1       4.643   5.389 -10.311  0.00  0.00    +0.158 A 
ATOM     22  C   UNL     1       5.857   6.046 -10.156  0.00  0.00    +0.110 A 
ATOM     23  N   UNL     1       6.313   5.612  -8.956  0.00  0.00    -0.233 NA
BRANCH  22  24
ATOM     24  C   UNL     1       6.775   6.365 -11.285  0.00  0.00    +0.163 C 
ATOM     25  O   UNL     1       6.853   5.247 -12.108  0.00  0.00    -0.220 OA
ATOM     26  C   UNL     1       6.303   7.575 -12.066  0.00  0.00    +0.039 C 
ATOM     27  C   UNL     1       8.154   6.692 -10.725  0.00  0.00    +0.039 C 
ENDBRANCH  22  24
BRANCH  21  28
ATOM     28  C   UNL     1       3.705   5.584 -11.418  0.00  0.00    +0.405 C 
ATOM     29  O   UNL     1       3.936   4.984 -12.660  0.00  0.00    -0.239 OA
ATOM     30  O   UNL     1       2.833   6.496 -11.409  0.00  0.00    -0.239 OA
ENDBRANCH  21  28
BRANCH  19  31
ATOM     31  C   UNL     1       5.085   5.335  -6.741  0.00  0.00    +0.064 C 
BRANCH  31  33
ATOM     32  C   UNL     1       4.058   6.602  -4.939  0.00  0.00    +0.000 C 
ATOM     33  C   UNL     1       4.372   6.642  -6.425  0.00  0.00    +0.008 C 
ENDBRANCH  31  33
ENDBRANCH  19  31
ENDBRANCH  18  20
ENDBRANCH   1  18
TORSDOF 8
ENDMDL
MODEL 3
REMARK VINA RESULT:      -9.1      2.927      7.977
REMARK  Name = 
REMARK  8 active torsions:
REMARK  status: ('A' for Active; 'I' for Inactive)
REMARK    1  A    between atoms: C_2  and  C_3
REMARK    2  A    between atoms: C_3  and  C_4
REMARK    3  A    between atoms: C_6  and  C_7
REMARK    4  A    between atoms: C_11  and  C_12
REMARK    5  A    between atoms: N_15  and  C_16
REMARK    6  A    between atoms: C_16  and  C_17
REMARK    7  A    between atoms: C_20  and  C_21
REMARK    8  A    between atoms: C_26  and  C_27
REMARK                            x       y       z     vdW  Elec       q    Type
REMARK                         _______ _______ _______ _____ _____    ______ ____
ROOT
ATOM      1  C   UNL     1       2.503   4.924  -7.749  0.00  0.00    +0.000 A 
ATOM      2  C   UNL     1       2.136   4.002  -6.782  0.00  0.00    -0.002 A 
ATOM      3  C   UNL     1       1.551   4.507  -5.636  0.00  0.00    -0.000 A 
ATOM      4  C   UNL     1       1.628   5.852  -5.289  0.00  0.00    -0.001 A 
ATOM      5  C   UNL     1       2.441   6.628  -6.069  0.00  0.00    -0.000 A 
ATOM      6  C   UNL     1       2.629   6.242  -7.391  0.00  0.00    -0.002 A 
ENDROOT
BRANCH   4   7
ATOM      7  C   UNL     1       1.368   6.124  -3.868  0.00  0.00    -0.006 A 
ATOM      8  C   UNL     1       0.115   5.723  -3.419  0.00  0.00    -0.015 A 
ATOM      9  C   UNL     1       0.011   5.153  -2.154  0.00  0.00    -0.007 A 
ATOM     10  C   UNL     1       1.082   5.153  -1.268  0.00  0.00    -0.001 A 
ATOM     11  C   UNL     1       2.154   5.983  -1.580  0.00  0.00    -0.000 A 
ATOM     12  C   UNL     1       2.404   6.132  -2.939  0.00  0.00    -0.001 A 
BRANCH   8  13
ATOM     13  C   UNL     1      -1.021   6.239  -4.156  0.00  0.00    +0.044 A 
ATOM     14  N   UNL     1      -1.546   7.463  -3.904  0.00  0.00    -0.289 NA
ATOM     15  N   UNL     1      -2.252   7.817  -4.955  0.00  0.00    -0.218 NA
ATOM     16  N   UNL     1      -2.488   6.685  -5.616  0.00  0.00    -0.218 NA
ATOM     17  N   UNL     1      -1.867   5.671  -5.012  0.00  0.00    -0.289 NA
ENDBRANCH   8  13
ENDBRANCH   4   7
BRANCH   1  18
ATOM     18  C   UNL     1       3.042   4.358  -9.014  0.00  0.00    +0.134 C 
BRANCH  18  20
ATOM     19  C   UNL     1       3.923   5.868 -10.766  0.00  0.00    +0.120 A 
ATOM     20  N   UNL     1       2.892   5.255 -10.134  0.00  0.00    -0.306 N 
ATOM     21  C   UNL     1       1.796   5.401 -10.910  0.00  0.00    +0.158 A 
ATOM     22  C   UNL     1       2.150   6.165 -12.015  0.00  0.00    +0.110 A 
ATOM     23  N   UNL     1       3.505   6.122 -12.021  0.00  0.00    -0.233 NA
BRANCH  22  24
ATOM     24  C   UNL     1       1.353   6.221 -13.272  0.00  0.00    +0.163 C 
ATOM     25  O   UNL     1       0.710   4.999 -13.430  0.00  0.00    -0.220 OA
ATOM     26  C   UNL     1       0.350   7.357 -13.248  0.00  0.00    +0.039 C 
ATOM     27  C   UNL     1       2.294   6.466 -14.445  0.00  0.00    +0.039 C 
ENDBRANCH  22  24
BRANCH  21  28
ATOM     28  C   UNL     1       0.433   5.205 -10.412  0.00  0.00    +0.405 C 
ATOM     29  O   UNL     1      -0.156   6.149  -9.565  0.00  0.00    -0.239 OA
ATOM     30  O   UNL     1      -0.152   4.089 -10.473  0.00  0.00    -0.239 OA
ENDBRANCH  21  28
BRANCH  19  31
ATOM     31  C   UNL     1       5.160   6.389 -10.102  0.00  0.00    +0.064 C 
BRANCH  31  33
ATOM     32  C   UNL     1       7.237   7.384 -10.878  0.00  0.00    +0.000 C 
ATOM     33  C   UNL     1       5.725   7.534 -10.929  0.00  0.00    +0.008 C 
ENDBRANCH  31  33
ENDBRANCH  19  31
ENDBRANCH  18  20
ENDBRANCH   1  18
TORSDOF 8
ENDMDL
MODEL 4
REMARK VINA RESULT:      -9.0      2.321      3.910
REMARK  Name = 
REMARK  8 active torsions:
REMARK  status: ('A' for Active; 'I' for Inactive)
REMARK    1  A    between atoms: C_2  and  C_3
REMARK    2  A    between atoms: C_3  and  C_4
REMARK    3  A    between atoms: C_6  and  C_7
REMARK    4  A    between atoms: C_11  and  C_12
REMARK    5  A    between atoms: N_15  and  C_16
REMARK    6  A    between atoms: C_16  and  C_17
REMARK    7  A    between atoms: C_20  and  C_21
REMARK    8  A    between atoms: C_26  and  C_27
REMARK                            x       y       z     vdW  Elec       q    Type
REMARK                         _______ _______ _______ _____ _____    ______ ____
ROOT
ATOM      1  C   UNL     1       2.312   4.851  -7.309  0.00  0.00    +0.000 A 
ATOM      2  C   UNL     1       2.652   3.962  -8.316  0.00  0.00    -0.002 A 
ATOM      3  C   UNL     1       3.091   4.511  -9.506  0.00  0.00    -0.000 A 
ATOM      4  C   UNL     1       2.889   5.849  -9.829  0.00  0.00    -0.001 A 
ATOM      5  C   UNL     1       2.100   6.563  -8.969  0.00  0.00    -0.000 A 
ATOM      6  C   UNL     1       2.063   6.159  -7.639  0.00  0.00    -0.002 A 
ENDROOT
BRANCH   4   7
ATOM      7  C   UNL     1       2.997   6.146 -11.265  0.00  0.00    -0.006 A 
ATOM      8  C   UNL     1       4.239   5.866 -11.825  0.00  0.00    -0.015 A 
ATOM      9  C   UNL     1       4.285   5.309 -13.099  0.00  0.00    -0.007 A 
ATOM     10  C   UNL     1       3.145   5.207 -13.888  0.00  0.00    -0.001 A 
ATOM     11  C   UNL     1       2.031   5.931 -13.477  0.00  0.00    -0.000 A 
ATOM     12  C   UNL     1       1.888   6.055 -12.100  0.00  0.00    -0.001 A 
BRANCH   8  13
ATOM     13  C   UNL     1       5.380   6.487 -11.185  0.00  0.00    +0.044 A 
ATOM     14  N   UNL     1       6.283   5.770 -10.473  0.00  0.00    -0.289 NA
ATOM     15  N   UNL     1       7.378   6.493 -10.378  0.00  0.00    -0.218 NA
ATOM     16  N   UNL     1       6.999   7.741 -10.644  0.00  0.00    -0.218 NA
ATOM     17  N   UNL     1       5.706   7.760 -10.972  0.00  0.00    -0.289 NA
ENDBRANCH   8  13
ENDBRANCH   4   7
BRANCH   1  18
ATOM     18  C   UNL     1       1.933   4.243  -6.006  0.00  0.00    +0.134 C 
BRANCH  18  20
ATOM     19  C   UNL     1       0.745   5.673  -4.373  0.00  0.00    +0.120 A 
ATOM     20  N   UNL     1       1.888   5.208  -4.934  0.00  0.00    -0.306 N 
ATOM     21  C   UNL     1       2.912   5.570  -4.131  0.00  0.00    +0.158 A 
ATOM     22  C   UNL     1       2.392   6.319  -3.083  0.00  0.00    +0.110 A 
ATOM     23  N   UNL     1       1.063   6.054  -3.120  0.00  0.00    -0.233 NA
BRANCH  22  24
ATOM     24  C   UNL     1       3.115   6.568  -1.805  0.00  0.00    +0.163 C 
ATOM     25  O   UNL     1       3.772   5.397  -1.446  0.00  0.00    -0.220 OA
ATOM     26  C   UNL     1       4.095   7.717  -1.932  0.00  0.00    +0.039 C 
ATOM     27  C   UNL     1       2.105   6.946  -0.729  0.00  0.00    +0.039 C 
ENDBRANCH  22  24
BRANCH  21  28
ATOM     28  C   UNL     1       4.308   5.576  -4.571  0.00  0.00    +0.405 C 
ATOM     29  O   UNL     1       4.777   6.575  -5.430  0.00  0.00    -0.239 OA
ATOM     30  O   UNL     1       5.058   4.569  -4.447  0.00  0.00    -0.239 OA
ENDBRANCH  21  28
BRANCH  19  31
ATOM     31  C   UNL     1      -0.531   5.950  -5.105  0.00  0.00    +0.064 C 
BRANCH  31  33
ATOM     32  C   UNL     1      -2.406   7.489  -4.962  0.00  0.00    +0.000 C 
ATOM     33  C   UNL     1      -0.888   7.420  -4.948  0.00  0.00    +0.008 C 
ENDBRANCH  31  33
ENDBRANCH  19  31
ENDBRANCH  18  20
ENDBRANCH   1  18
TORSDOF 8
ENDMDL
MODEL 5
REMARK VINA RESULT:      -8.9      1.638      2.731
REMARK  Name = 
REMARK  8 active torsions:
REMARK  status: ('A' for Active; 'I' for Inactive)
REMARK    1  A    between atoms: C_2  and  C_3
REMARK    2  A    between atoms: C_3  and  C_4
REMARK    3  A    between atoms: C_6  and  C_7
REMARK    4  A    between atoms: C_11  and  C_12
REMARK    5  A    between atoms: N_15  and  C_16
REMARK    6  A    between atoms: C_16  and  C_17
REMARK    7  A    between atoms: C_20  and  C_21
REMARK    8  A    between atoms: C_26  and  C_27
REMARK                            x       y       z     vdW  Elec       q    Type
REMARK                         _______ _______ _______ _____ _____    ______ ____
ROOT
ATOM      1  C   UNL     1       2.137   4.857  -7.306  0.00  0.00    +0.000 A 
ATOM      2  C   UNL     1       2.676   6.129  -7.415  0.00  0.00    -0.002 A 
ATOM      3  C   UNL     1       3.481   6.368  -8.513  0.00  0.00    -0.000 A 
ATOM      4  C   UNL     1       4.017   5.342  -9.283  0.00  0.00    -0.001 A 
ATOM      5  C   UNL     1       3.827   4.072  -8.810  0.00  0.00    -0.000 A 
ATOM      6  C   UNL     1       2.702   3.835  -8.028  0.00  0.00    -0.002 A 
ENDROOT
BRANCH   4   7
ATOM      7  C   UNL     1       5.178   5.738 -10.094  0.00  0.00    -0.006 A 
ATOM      8  C   UNL     1       4.892   6.628 -11.123  0.00  0.00    -0.015 A 
ATOM      9  C   UNL     1       5.794   7.654 -11.388  0.00  0.00    -0.007 A 
ATOM     10  C   UNL     1       7.046   7.692 -10.785  0.00  0.00    -0.001 A 
ATOM     11  C   UNL     1       7.466   6.535 -10.139  0.00  0.00    -0.000 A 
ATOM     12  C   UNL     1       6.452   5.798  -9.539  0.00  0.00    -0.001 A 
BRANCH   8  13
ATOM     13  C   UNL     1       3.858   6.217 -12.051  0.00  0.00    +0.044 A 
ATOM     14  N   UNL     1       4.149   5.678 -13.260  0.00  0.00    -0.289 NA
ATOM     15  N   UNL     1       3.078   5.042 -13.680  0.00  0.00    -0.218 NA
ATOM     16  N   UNL     1       2.071   5.538 -12.963  0.00  0.00    -0.218 NA
ATOM     17  N   UNL     1       2.540   6.408 -12.068  0.00  0.00    -0.289 NA
ENDBRANCH   8  13
ENDBRANCH   4   7
BRANCH   1  18
ATOM     18  C   UNL     1       1.200   4.644  -6.172  0.00  0.00    +0.134 C 
BRANCH  18  20
ATOM     19  C   UNL     1       0.524   6.442  -4.612  0.00  0.00    +0.120 A 
ATOM     20  N   UNL     1       1.436   5.553  -5.076  0.00  0.00    -0.306 N 
ATOM     21  C   UNL     1       2.431   5.479  -4.166  0.00  0.00    +0.158 A 
ATOM     22  C   UNL     1       2.151   6.382  -3.149  0.00  0.00    +0.110 A 
ATOM     23  N   UNL     1       0.838   6.673  -3.322  0.00  0.00    -0.233 NA
BRANCH  22  24
ATOM     24  C   UNL     1       2.779   6.328  -1.799  0.00  0.00    +0.163 C 
ATOM     25  O   UNL     1       1.908   6.921  -0.893  0.00  0.00    -0.220 OA
ATOM     26  C   UNL     1       3.097   4.905  -1.386  0.00  0.00    +0.039 C 
ATOM     27  C   UNL     1       4.093   7.098  -1.834  0.00  0.00    +0.039 C 
ENDBRANCH  22  24
BRANCH  21  28
ATOM     28  C   UNL     1       3.750   4.920  -4.470  0.00  0.00    +0.405 C 
ATOM     29  O   UNL     1       4.773   5.739  -4.959  0.00  0.00    -0.239 OA
ATOM     30  O   UNL     1       3.946   3.679  -4.584  0.00  0.00    -0.239 OA
ENDBRANCH  21  28
BRANCH  19  31
ATOM     31  C   UNL     1      -0.452   7.203  -5.454  0.00  0.00    +0.064 C 
BRANCH  31  33
ATOM     32  C   UNL     1      -2.310   5.850  -6.246  0.00  0.00    +0.000 C 
ATOM     33  C   UNL     1      -1.864   6.755  -5.109  0.00  0.00    +0.008 C 
ENDBRANCH  31  33
ENDBRANCH  19  31
ENDBRANCH  18  20
ENDBRANCH   1  18
TORSDOF 8
ENDMDL
MODEL 6
REMARK VINA RESULT:      -8.6      3.241      8.075
REMARK  Name = 
REMARK  8 active torsions:
REMARK  status: ('A' for Active; 'I' for Inactive)
REMARK    1  A    between atoms: C_2  and  C_3
REMARK    2  A    between atoms: C_3  and  C_4
REMARK    3  A    between atoms: C_6  and  C_7
REMARK    4  A    between atoms: C_11  and  C_12
REMARK    5  A    between atoms: N_15  and  C_16
REMARK    6  A    between atoms: C_16  and  C_17
REMARK    7  A    between atoms: C_20  and  C_21
REMARK    8  A    between atoms: C_26  and  C_27
REMARK                            x       y       z     vdW  Elec       q    Type
REMARK                         _______ _______ _______ _____ _____    ______ ____
ROOT
ATOM      1  C   UNL     1       2.287   4.889  -7.442  0.00  0.00    +0.000 A 
ATOM      2  C   UNL     1       2.702   4.240  -6.290  0.00  0.00    -0.002 A 
ATOM      3  C   UNL     1       2.524   4.919  -5.099  0.00  0.00    -0.000 A 
ATOM      4  C   UNL     1       2.278   6.287  -5.050  0.00  0.00    -0.001 A 
ATOM      5  C   UNL     1       2.366   6.957  -6.240  0.00  0.00    -0.000 A 
ATOM      6  C   UNL     1       2.096   6.247  -7.404  0.00  0.00    -0.002 A 
ENDROOT
BRANCH   4   7
ATOM      7  C   UNL     1       2.568   6.906  -3.748  0.00  0.00    -0.006 A 
ATOM      8  C   UNL     1       2.053   6.223  -2.652  0.00  0.00    -0.015 A 
ATOM      9  C   UNL     1       2.828   6.133  -1.500  0.00  0.00    -0.007 A 
ATOM     10  C   UNL     1       4.001   6.863  -1.355  0.00  0.00    -0.001 A 
ATOM     11  C   UNL     1       4.220   7.887  -2.271  0.00  0.00    -0.000 A 
ATOM     12  C   UNL     1       3.730   7.644  -3.549  0.00  0.00    -0.001 A 
BRANCH   8  13
ATOM     13  C   UNL     1       0.630   5.957  -2.678  0.00  0.00    +0.044 A 
ATOM     14  N   UNL     1       0.096   4.842  -2.121  0.00  0.00    -0.289 NA
ATOM     15  N   UNL     1      -1.185   5.068  -1.930  0.00  0.00    -0.218 NA
ATOM     16  N   UNL     1      -1.483   6.094  -2.725  0.00  0.00    -0.218 NA
ATOM     17  N   UNL     1      -0.378   6.532  -3.330  0.00  0.00    -0.289 NA
ENDBRANCH   8  13
ENDBRANCH   4   7
BRANCH   1  18
ATOM     18  C   UNL     1       2.398   4.108  -8.703  0.00  0.00    +0.134 C 
BRANCH  18  20
ATOM     19  C   UNL     1       3.968   5.232 -10.249  0.00  0.00    +0.120 A 
ATOM     20  N   UNL     1       2.710   4.934  -9.844  0.00  0.00    -0.306 N 
ATOM     21  C   UNL     1       1.868   5.285 -10.840  0.00  0.00    +0.158 A 
ATOM     22  C   UNL     1       2.620   5.861 -11.856  0.00  0.00    +0.110 A 
ATOM     23  N   UNL     1       3.893   5.491 -11.570  0.00  0.00    -0.233 NA
BRANCH  22  24
ATOM     24  C   UNL     1       2.136   6.019 -13.256  0.00  0.00    +0.163 C 
ATOM     25  O   UNL     1       1.356   7.168 -13.315  0.00  0.00    -0.220 OA
ATOM     26  C   UNL     1       3.287   6.100 -14.239  0.00  0.00    +0.039 C 
ATOM     27  C   UNL     1       1.298   4.804 -13.631  0.00  0.00    +0.039 C 
ENDBRANCH  22  24
BRANCH  21  28
ATOM     28  C   UNL     1       0.428   5.460 -10.643  0.00  0.00    +0.405 C 
ATOM     29  O   UNL     1      -0.455   4.400 -10.874  0.00  0.00    -0.239 OA
ATOM     30  O   UNL     1      -0.105   6.600 -10.547  0.00  0.00    -0.239 OA
ENDBRANCH  21  28
BRANCH  19  31
ATOM     31  C   UNL     1       5.134   5.484  -9.345  0.00  0.00    +0.064 C 
BRANCH  31  33
ATOM     32  C   UNL     1       7.541   5.706  -9.598  0.00  0.00    +0.000 C 
ATOM     33  C   UNL     1       6.212   6.231 -10.115  0.00  0.00    +0.008 C 
ENDBRANCH  31  33
ENDBRANCH  19  31
ENDBRANCH  18  20
ENDBRANCH   1  18
TORSDOF 8
ENDMDL
MODEL 7
REMARK VINA RESULT:      -8.6      2.594      4.305
REMARK  Name = 
REMARK  8 active torsions:
REMARK  status: ('A' for Active; 'I' for Inactive)
REMARK    1  A    between atoms: C_2  and  C_3
REMARK    2  A    between atoms: C_3  and  C_4
REMARK    3  A    between atoms: C_6  and  C_7
REMARK    4  A    between atoms: C_11  and  C_12
REMARK    5  A    between atoms: N_15  and  C_16
REMARK    6  A    between atoms: C_16  and  C_17
REMARK    7  A    between atoms: C_20  and  C_21
REMARK    8  A    between atoms: C_26  and  C_27
REMARK                            x       y       z     vdW  Elec       q    Type
REMARK                         _______ _______ _______ _____ _____    ______ ____
ROOT
ATOM      1  C   UNL     1       2.607   5.222  -6.366  0.00  0.00    +0.000 A 
ATOM      2  C   UNL     1       2.883   6.512  -6.791  0.00  0.00    -0.002 A 
ATOM      3  C   UNL     1       2.280   6.919  -7.967  0.00  0.00    -0.000 A 
ATOM      4  C   UNL     1       1.715   6.019  -8.865  0.00  0.00    -0.001 A 
ATOM      5  C   UNL     1       1.917   4.693  -8.596  0.00  0.00    -0.000 A 
ATOM      6  C   UNL     1       2.099   4.323  -7.269  0.00  0.00    -0.002 A 
ENDROOT
BRANCH   4   7
ATOM      7  C   UNL     1       1.541   6.553 -10.224  0.00  0.00    -0.006 A 
ATOM      8  C   UNL     1       2.456   6.076 -11.157  0.00  0.00    -0.015 A 
ATOM      9  C   UNL     1       2.008   5.786 -12.442  0.00  0.00    -0.007 A 
ATOM     10  C   UNL     1       0.731   6.139 -12.861  0.00  0.00    -0.001 A 
ATOM     11  C   UNL     1       0.031   7.032 -12.057  0.00  0.00    -0.000 A 
ATOM     12  C   UNL     1       0.284   6.917 -10.696  0.00  0.00    -0.001 A 
BRANCH   8  13
ATOM     13  C   UNL     1       3.855   6.244 -10.820  0.00  0.00    +0.044 A 
ATOM     14  N   UNL     1       4.665   5.187 -10.569  0.00  0.00    -0.289 NA
ATOM     15  N   UNL     1       5.907   5.596 -10.707  0.00  0.00    -0.218 NA
ATOM     16  N   UNL     1       5.850   6.924 -10.619  0.00  0.00    -0.218 NA
ATOM     17  N   UNL     1       4.580   7.315 -10.507  0.00  0.00    -0.289 NA
ENDBRANCH   8  13
ENDBRANCH   4   7
BRANCH   1  18
ATOM     18  C   UNL     1       3.187   4.834  -5.053  0.00  0.00    +0.134 C 
BRANCH  18  20
ATOM     19  C   UNL     1       1.548   5.629  -3.378  0.00  0.00    +0.120 A 
ATOM     20  N   UNL     1       2.761   5.698  -3.978  0.00  0.00    -0.306 N 
ATOM     21  C   UNL     1       3.551   6.479  -3.210  0.00  0.00    +0.158 A 
ATOM     22  C   UNL     1       2.791   6.943  -2.145  0.00  0.00    +0.110 A 
ATOM     23  N   UNL     1       1.708   6.128  -2.136  0.00  0.00    -0.233 NA
BRANCH  22  24
ATOM     24  C   UNL     1       3.374   7.499  -0.892  0.00  0.00    +0.163 C 
ATOM     25  O   UNL     1       3.890   8.758  -1.177  0.00  0.00    -0.220 OA
ATOM     26  C   UNL     1       2.345   7.579   0.217  0.00  0.00    +0.039 C 
ATOM     27  C   UNL     1       4.490   6.578  -0.414  0.00  0.00    +0.039 C 
ENDBRANCH  22  24
BRANCH  21  28
ATOM     28  C   UNL     1       4.792   7.085  -3.698  0.00  0.00    +0.405 C 
ATOM     29  O   UNL     1       4.762   8.284  -4.417  0.00  0.00    -0.239 OA
ATOM     30  O   UNL     1       5.877   6.444  -3.755  0.00  0.00    -0.239 OA
ENDBRANCH  21  28
BRANCH  19  31
ATOM     31  C   UNL     1       0.256   5.315  -4.066  0.00  0.00    +0.064 C 
BRANCH  31  33
ATOM     32  C   UNL     1      -1.026   6.113  -5.970  0.00  0.00    +0.000 C 
ATOM     33  C   UNL     1      -0.274   6.575  -4.733  0.00  0.00    +0.008 C 
ENDBRANCH  31  33
ENDBRANCH  19  31
ENDBRANCH  18  20
ENDBRANCH   1  18
TORSDOF 8
ENDMDL
MODEL 8
REMARK VINA RESULT:      -8.5      2.248      3.681
REMARK  Name = 
REMARK  8 active torsions:
REMARK  status: ('A' for Active; 'I' for Inactive)
REMARK    1  A    between atoms: C_2  and  C_3
REMARK    2  A    between atoms: C_3  and  C_4
REMARK    3  A    between atoms: C_6  and  C_7
REMARK    4  A    between atoms: C_11  and  C_12
REMARK    5  A    between atoms: N_15  and  C_16
REMARK    6  A    between atoms: C_16  and  C_17
REMARK    7  A    between atoms: C_20  and  C_21
REMARK    8  A    between atoms: C_26  and  C_27
REMARK                            x       y       z     vdW  Elec       q    Type
REMARK                         _______ _______ _______ _____ _____    ______ ____
ROOT
ATOM      1  C   UNL     1       2.997   6.607  -5.325  0.00  0.00    +0.000 A 
ATOM      2  C   UNL     1       2.801   7.402  -6.443  0.00  0.00    -0.002 A 
ATOM      3  C   UNL     1       3.179   6.864  -7.659  0.00  0.00    -0.000 A 
ATOM      4  C   UNL     1       4.017   5.757  -7.757  0.00  0.00    -0.001 A 
ATOM      5  C   UNL     1       4.569   5.315  -6.586  0.00  0.00    -0.000 A 
ATOM      6  C   UNL     1       3.865   5.548  -5.410  0.00  0.00    -0.002 A 
ENDROOT
BRANCH   4   7
ATOM      7  C   UNL     1       4.668   5.607  -9.067  0.00  0.00    -0.006 A 
ATOM      8  C   UNL     1       3.941   6.114 -10.139  0.00  0.00    -0.015 A 
ATOM      9  C   UNL     1       4.624   6.783 -11.150  0.00  0.00    -0.007 A 
ATOM     10  C   UNL     1       6.013   6.786 -11.208  0.00  0.00    -0.001 A 
ATOM     11  C   UNL     1       6.677   5.873 -10.396  0.00  0.00    -0.000 A 
ATOM     12  C   UNL     1       6.054   5.609  -9.181  0.00  0.00    -0.001 A 
BRANCH   8  13
ATOM     13  C   UNL     1       2.590   5.613 -10.286  0.00  0.00    +0.044 A 
ATOM     14  N   UNL     1       1.621   6.330 -10.905  0.00  0.00    -0.289 NA
ATOM     15  N   UNL     1       0.667   5.492 -11.250  0.00  0.00    -0.218 NA
ATOM     16  N   UNL     1       0.859   4.412 -10.496  0.00  0.00    -0.218 NA
ATOM     17  N   UNL     1       1.960   4.565  -9.760  0.00  0.00    -0.289 NA
ENDBRANCH   8  13
ENDBRANCH   4   7
BRANCH   1  18
ATOM     18  C   UNL     1       2.499   7.163  -4.039  0.00  0.00    +0.134 C 
BRANCH  18  20
ATOM     19  C   UNL     1       1.662   5.574  -2.335  0.00  0.00    +0.120 A 
ATOM     20  N   UNL     1       1.476   6.342  -3.437  0.00  0.00    -0.306 N 
ATOM     21  C   UNL     1       0.145   6.419  -3.658  0.00  0.00    +0.158 A 
ATOM     22  C   UNL     1      -0.495   5.639  -2.704  0.00  0.00    +0.110 A 
ATOM     23  N   UNL     1       0.453   5.438  -1.756  0.00  0.00    -0.233 NA
BRANCH  22  24
ATOM     24  C   UNL     1      -1.941   5.766  -2.366  0.00  0.00    +0.163 C 
ATOM     25  O   UNL     1      -2.174   5.052  -1.196  0.00  0.00    -0.220 OA
ATOM     26  C   UNL     1      -2.351   7.216  -2.202  0.00  0.00    +0.039 C 
ATOM     27  C   UNL     1      -2.768   5.181  -3.503  0.00  0.00    +0.039 C 
ENDBRANCH  22  24
BRANCH  21  28
ATOM     28  C   UNL     1      -0.428   6.841  -4.937  0.00  0.00    +0.405 C 
ATOM     29  O   UNL     1      -1.175   8.020  -5.027  0.00  0.00    -0.239 OA
ATOM     30  O   UNL     1      -0.530   6.057  -5.921  0.00  0.00    -0.239 OA
ENDBRANCH  21  28
BRANCH  19  31
ATOM     31  C   UNL     1       2.912   4.820  -2.006  0.00  0.00    +0.064 C 
BRANCH  31  33
ATOM     32  C   UNL     1       4.489   6.501  -1.236  0.00  0.00    +0.000 C 
ATOM     33  C   UNL     1       3.540   5.416  -0.755  0.00  0.00    +0.008 C 
ENDBRANCH  31  33
ENDBRANCH  19  31
ENDBRANCH  18  20
ENDBRANCH   1  18
TORSDOF 8
ENDMDL
MODEL 9
REMARK VINA RESULT:      -8.4      1.850      2.894
REMARK  Name = 
REMARK  8 active torsions:
REMARK  status: ('A' for Active; 'I' for Inactive)
REMARK    1  A    between atoms: C_2  and  C_3
REMARK    2  A    between atoms: C_3  and  C_4
REMARK    3  A    between atoms: C_6  and  C_7
REMARK    4  A    between atoms: C_11  and  C_12
REMARK    5  A    between atoms: N_15  and  C_16
REMARK    6  A    between atoms: C_16  and  C_17
REMARK    7  A    between atoms: C_20  and  C_21
REMARK    8  A    between atoms: C_26  and  C_27
REMARK                            x       y       z     vdW  Elec       q    Type
REMARK                         _______ _______ _______ _____ _____    ______ ____
ROOT
ATOM      1  C   UNL     1       1.635   6.785  -7.739  0.00  0.00    +0.000 A 
ATOM      2  C   UNL     1       2.631   7.671  -8.120  0.00  0.00    -0.002 A 
ATOM      3  C   UNL     1       3.606   7.179  -8.968  0.00  0.00    -0.000 A 
ATOM      4  C   UNL     1       3.805   5.816  -9.165  0.00  0.00    -0.001 A 
ATOM      5  C   UNL     1       3.080   4.980  -8.360  0.00  0.00    -0.000 A 
ATOM      6  C   UNL     1       1.857   5.439  -7.886  0.00  0.00    -0.002 A 
ENDROOT
BRANCH   4   7
ATOM      7  C   UNL     1       5.127   5.473  -9.708  0.00  0.00    -0.006 A 
ATOM      8  C   UNL     1       5.397   6.007 -10.964  0.00  0.00    -0.015 A 
ATOM      9  C   UNL     1       6.677   6.486 -11.223  0.00  0.00    -0.007 A 
ATOM     10  C   UNL     1       7.726   6.269 -10.338  0.00  0.00    -0.001 A 
ATOM     11  C   UNL     1       7.518   5.325  -9.338  0.00  0.00    -0.000 A 
ATOM     12  C   UNL     1       6.212   5.250  -8.867  0.00  0.00    -0.001 A 
BRANCH   8  13
ATOM     13  C   UNL     1       4.430   5.713 -12.002  0.00  0.00    +0.044 A 
ATOM     14  N   UNL     1       4.746   4.966 -13.088  0.00  0.00    -0.289 NA
ATOM     15  N   UNL     1       3.622   4.530 -13.611  0.00  0.00    -0.218 NA
ATOM     16  N   UNL     1       2.674   5.327 -13.121  0.00  0.00    -0.218 NA
ATOM     17  N   UNL     1       3.211   6.184 -12.252  0.00  0.00    -0.289 NA
ENDBRANCH   8  13
ENDBRANCH   4   7
BRANCH   1  18
ATOM     18  C   UNL     1       0.544   7.354  -6.905  0.00  0.00    +0.134 C 
BRANCH  18  20
ATOM     19  C   UNL     1       1.374   6.710  -4.664  0.00  0.00    +0.120 A 
ATOM     20  N   UNL     1       0.420   6.696  -5.626  0.00  0.00    -0.306 N 
ATOM     21  C   UNL     1      -0.719   6.237  -5.063  0.00  0.00    +0.158 A 
ATOM     22  C   UNL     1      -0.443   5.911  -3.741  0.00  0.00    +0.110 A 
ATOM     23  N   UNL     1       0.736   6.531  -3.491  0.00  0.00    -0.233 NA
BRANCH  22  24
ATOM     24  C   UNL     1      -1.489   5.746  -2.694  0.00  0.00    +0.163 C 
ATOM     25  O   UNL     1      -2.307   4.685  -3.065  0.00  0.00    -0.220 OA
ATOM     26  C   UNL     1      -0.880   5.502  -1.328  0.00  0.00    +0.039 C 
ATOM     27  C   UNL     1      -2.310   7.026  -2.607  0.00  0.00    +0.039 C 
ENDBRANCH  22  24
BRANCH  21  28
ATOM     28  C   UNL     1      -1.851   5.737  -5.844  0.00  0.00    +0.405 C 
ATOM     29  O   UNL     1      -1.672   4.707  -6.774  0.00  0.00    -0.239 OA
ATOM     30  O   UNL     1      -2.938   6.371  -5.938  0.00  0.00    -0.239 OA
ENDBRANCH  21  28
BRANCH  19  31
ATOM     31  C   UNL     1       2.851   6.660  -4.907  0.00  0.00    +0.064 C 
BRANCH  31  33
ATOM     32  C   UNL     1       4.781   5.193  -5.071  0.00  0.00    +0.000 C 
ATOM     33  C   UNL     1       3.378   5.294  -4.495  0.00  0.00    +0.008 C 
ENDBRANCH  31  33
ENDBRANCH  19  31
ENDBRANCH  18  20
ENDBRANCH   1  18
TORSDOF 8
ENDMDL
