MODEL 1
REMARK VINA RESULT:      -7.4      0.000      0.000
REMARK  Name = 
REMARK  8 active torsions:
REMARK  status: ('A' for Active; 'I' for Inactive)
REMARK    1  A    between atoms: C_2  and  N_4
REMARK    2  A    between atoms: N_4  and  C_5
REMARK    3  A    between atoms: N_4  and  C_23
REMARK    4  A    between atoms: C_5  and  C_6
REMARK    5  A    between atoms: C_6  and  C_7
REMARK    6  A    between atoms: C_7  and  C_8
REMARK    7  A    between atoms: C_7  and  C_11
REMARK    8  A    between atoms: C_7  and  C_17
REMARK                            x       y       z     vdW  Elec       q    Type
REMARK                         _______ _______ _______ _____ _____    ______ ____
ROOT
ATOM      1  C   UNL     1       2.462   5.916  -5.593  0.00  0.00    +0.127 C 
ENDROOT
BRANCH   1   2
ATOM      2  C   UNL     1       2.861   6.423  -6.945  0.00  0.00    -0.009 A 
ATOM      3  C   UNL     1       3.907   5.869  -7.648  0.00  0.00    -0.003 A 
ATOM      4  C   UNL     1       3.996   6.049  -9.023  0.00  0.00    -0.000 A 
ATOM      5  C   UNL     1       2.834   6.337  -9.728  0.00  0.00    -0.000 A 
ATOM      6  C   UNL     1       1.879   7.093  -9.062  0.00  0.00    -0.000 A 
ATOM      7  C   UNL     1       1.831   6.967  -7.701  0.00  0.00    -0.003 A 
ENDBRANCH   1   2
BRANCH   1   8
ATOM      8  C   UNL     1       3.302   6.492  -4.520  0.00  0.00    +0.070 A 
ATOM      9  N   UNL     1       2.668   6.923  -3.405  0.00  0.00    -0.247 NA
ATOM     10  C   UNL     1       3.354   7.598  -2.472  0.00  0.00    +0.098 A 
ATOM     11  C   UNL     1       4.612   8.129  -2.712  0.00  0.00    +0.021 A 
ATOM     12  C   UNL     1       5.077   8.028  -4.008  0.00  0.00    +0.003 A 
ATOM     13  C   UNL     1       4.477   7.127  -4.847  0.00  0.00    +0.016 A 
ENDBRANCH   1   8
BRANCH   1  14
ATOM     14  C   UNL     1       2.644   4.447  -5.629  0.00  0.00    +0.269 C 
ATOM     15  O   UNL     1       3.532   3.956  -4.872  0.00  0.00    -0.271 OA
ATOM     16  N   UNL     1       2.052   3.594  -6.587  0.00  0.00    -0.087 NA
ENDBRANCH   1  14
BRANCH   1  17
ATOM     17  C   UNL     1       1.011   6.309  -5.377  0.00  0.00    +0.036 C 
BRANCH  17  18
ATOM     18  C   UNL     1       0.330   5.299  -4.462  0.00  0.00    +0.073 C 
BRANCH  18  19
ATOM     19  N   UNL     1      -1.056   5.654  -4.327  0.00  0.00    -0.275 NA
BRANCH  19  20
ATOM     20  C   UNL     1      -1.443   5.997  -2.984  0.00  0.00    +0.058 C 
ATOM     21  C   UNL     1      -2.777   5.377  -2.591  0.00  0.00    +0.017 C 
ATOM     22  C   UNL     1      -0.373   5.514  -2.022  0.00  0.00    +0.017 C 
ENDBRANCH  19  20
BRANCH  19  24
ATOM     23  C   UNL     1      -1.983   7.887  -4.701  0.00  0.00    +0.017 C 
ATOM     24  C   UNL     1      -1.521   6.599  -5.306  0.00  0.00    +0.058 C 
ATOM     25  C   UNL     1      -2.495   6.026  -6.295  0.00  0.00    +0.017 C 
ENDBRANCH  19  24
ENDBRANCH  18  19
ENDBRANCH  17  18
ENDBRANCH   1  17
TORSDOF 8
ENDMDL
MODEL 2
REMARK VINA RESULT:      -7.4      2.157      5.407
REMARK  Name = 
REMARK  8 active torsions:
REMARK  status: ('A' for Active; 'I' for Inactive)
REMARK    1  A    between atoms: C_2  and  N_4
REMARK    2  A    between atoms: N_4  and  C_5
REMARK    3  A    between atoms: N_4  and  C_23
REMARK    4  A    between atoms: C_5  and  C_6
REMARK    5  A    between atoms: C_6  and  C_7
REMARK    6  A    between atoms: C_7  and  C_8
REMARK    7  A    between atoms: C_7  and  C_11
REMARK    8  A    between atoms: C_7  and  C_17
REMARK                            x       y       z     vdW  Elec       q    Type
REMARK                         _______ _______ _______ _____ _____    ______ ____
ROOT
ATOM      1  C   UNL     1       1.749   5.982  -6.511  0.00  0.00    +0.127 C 
ENDROOT
BRANCH   1   2
ATOM      2  C   UNL     1       0.294   6.324  -6.427  0.00  0.00    -0.009 A 
ATOM      3  C   UNL     1      -0.681   5.463  -6.879  0.00  0.00    -0.003 A 
ATOM      4  C   UNL     1      -1.988   5.590  -6.427  0.00  0.00    -0.000 A 
ATOM      5  C   UNL     1      -2.208   6.217  -5.207  0.00  0.00    -0.000 A 
ATOM      6  C   UNL     1      -1.332   7.242  -4.874  0.00  0.00    -0.000 A 
ATOM      7  C   UNL     1      -0.061   7.153  -5.371  0.00  0.00    -0.003 A 
ENDBRANCH   1   2
BRANCH   1   8
ATOM      8  C   UNL     1       2.268   5.470  -5.223  0.00  0.00    +0.070 A 
ATOM      9  N   UNL     1       2.087   6.249  -4.131  0.00  0.00    -0.247 NA
ATOM     10  C   UNL     1       2.674   5.915  -2.974  0.00  0.00    +0.098 A 
ATOM     11  C   UNL     1       3.688   4.972  -2.899  0.00  0.00    +0.021 A 
ATOM     12  C   UNL     1       4.148   4.477  -4.103  0.00  0.00    +0.003 A 
ATOM     13  C   UNL     1       3.367   4.644  -5.217  0.00  0.00    +0.016 A 
ENDBRANCH   1   8
BRANCH   1  14
ATOM     14  C   UNL     1       2.452   7.237  -6.863  0.00  0.00    +0.269 C 
ATOM     15  O   UNL     1       3.475   7.538  -6.179  0.00  0.00    -0.271 OA
ATOM     16  N   UNL     1       1.947   8.211  -7.753  0.00  0.00    -0.087 NA
ENDBRANCH   1  14
BRANCH   1  17
ATOM     17  C   UNL     1       1.901   4.920  -7.585  0.00  0.00    +0.036 C 
BRANCH  17  18
ATOM     18  C   UNL     1       2.996   5.323  -8.564  0.00  0.00    +0.073 C 
BRANCH  18  19
ATOM     19  N   UNL     1       2.456   5.315  -9.895  0.00  0.00    -0.275 NA
BRANCH  19  20
ATOM     20  C   UNL     1       1.023   5.441  -9.945  0.00  0.00    +0.058 C 
ATOM     21  C   UNL     1       0.580   6.766 -10.551  0.00  0.00    +0.017 C 
ATOM     22  C   UNL     1       0.455   4.305 -10.775  0.00  0.00    +0.017 C 
ENDBRANCH  19  20
BRANCH  19  24
ATOM     23  C   UNL     1       3.506   5.522 -12.095  0.00  0.00    +0.017 C 
ATOM     24  C   UNL     1       3.131   6.193 -10.812  0.00  0.00    +0.058 C 
ATOM     25  C   UNL     1       4.260   6.968 -10.196  0.00  0.00    +0.017 C 
ENDBRANCH  19  24
ENDBRANCH  18  19
ENDBRANCH  17  18
ENDBRANCH   1  17
TORSDOF 8
ENDMDL
MODEL 3
REMARK VINA RESULT:      -7.4      1.733      5.381
REMARK  Name = 
REMARK  8 active torsions:
REMARK  status: ('A' for Active; 'I' for Inactive)
REMARK    1  A    between atoms: C_2  and  N_4
REMARK    2  A    between atoms: N_4  and  C_5
REMARK    3  A    between atoms: N_4  and  C_23
REMARK    4  A    between atoms: C_5  and  C_6
REMARK    5  A    between atoms: C_6  and  C_7
REMARK    6  A    between atoms: C_7  and  C_8
REMARK    7  A    between atoms: C_7  and  C_11
REMARK    8  A    between atoms: C_7  and  C_17
REMARK                            x       y       z     vdW  Elec       q    Type
REMARK                         _______ _______ _______ _____ _____    ______ ____
ROOT
ATOM      1  C   UNL     1       1.148   5.952  -6.741  0.00  0.00    +0.127 C 
ENDROOT
BRANCH   1   2
ATOM      2  C   UNL     1      -0.083   6.137  -5.910  0.00  0.00    -0.009 A 
ATOM      3  C   UNL     1      -0.248   7.229  -5.088  0.00  0.00    -0.003 A 
ATOM      4  C   UNL     1      -1.518   7.599  -4.665  0.00  0.00    -0.000 A 
ATOM      5  C   UNL     1      -2.609   7.207  -5.431  0.00  0.00    -0.000 A 
ATOM      6  C   UNL     1      -2.501   5.984  -6.079  0.00  0.00    -0.000 A 
ATOM      7  C   UNL     1      -1.243   5.585  -6.439  0.00  0.00    -0.003 A 
ENDBRANCH   1   2
BRANCH   1   8
ATOM      8  C   UNL     1       0.890   6.223  -8.173  0.00  0.00    +0.070 A 
ATOM      9  N   UNL     1       0.174   5.299  -8.856  0.00  0.00    -0.247 NA
ATOM     10  C   UNL     1       0.046   5.409 -10.185  0.00  0.00    +0.098 A 
ATOM     11  C   UNL     1       0.843   6.256 -10.941  0.00  0.00    +0.021 A 
ATOM     12  C   UNL     1       1.861   6.898 -10.264  0.00  0.00    +0.003 A 
ATOM     13  C   UNL     1       1.797   6.960  -8.898  0.00  0.00    +0.016 A 
ENDBRANCH   1   8
BRANCH   1  14
ATOM     14  C   UNL     1       1.559   4.540  -6.571  0.00  0.00    +0.269 C 
ATOM     15  O   UNL     1       1.125   3.931  -5.549  0.00  0.00    -0.271 OA
ATOM     16  N   UNL     1       2.555   3.900  -7.342  0.00  0.00    -0.087 NA
ENDBRANCH   1  14
BRANCH   1  17
ATOM     17  C   UNL     1       2.194   6.921  -6.217  0.00  0.00    +0.036 C 
BRANCH  17  18
ATOM     18  C   UNL     1       3.152   6.194  -5.281  0.00  0.00    +0.073 C 
BRANCH  18  19
ATOM     19  N   UNL     1       3.047   6.771  -3.969  0.00  0.00    -0.275 NA
BRANCH  19  20
ATOM     20  C   UNL     1       3.023   5.802  -2.905  0.00  0.00    +0.058 C 
ATOM     21  C   UNL     1       1.605   5.402  -2.519  0.00  0.00    +0.017 C 
ATOM     22  C   UNL     1       3.781   4.564  -3.346  0.00  0.00    +0.017 C 
ENDBRANCH  19  20
BRANCH  19  24
ATOM     23  C   UNL     1       5.324   7.605  -4.291  0.00  0.00    +0.017 C 
ATOM     24  C   UNL     1       3.961   7.853  -3.725  0.00  0.00    +0.058 C 
ATOM     25  C   UNL     1       3.989   8.320  -2.297  0.00  0.00    +0.017 C 
ENDBRANCH  19  24
ENDBRANCH  18  19
ENDBRANCH  17  18
ENDBRANCH   1  17
TORSDOF 8
ENDMDL
MODEL 4
REMARK VINA RESULT:      -7.3      0.470      1.782
REMARK  Name = 
REMARK  8 active torsions:
REMARK  status: ('A' for Active; 'I' for Inactive)
REMARK    1  A    between atoms: C_2  and  N_4
REMARK    2  A    between atoms: N_4  and  C_5
REMARK    3  A    between atoms: N_4  and  C_23
REMARK    4  A    between atoms: C_5  and  C_6
REMARK    5  A    between atoms: C_6  and  C_7
REMARK    6  A    between atoms: C_7  and  C_8
REMARK    7  A    between atoms: C_7  and  C_11
REMARK    8  A    between atoms: C_7  and  C_17
REMARK                            x       y       z     vdW  Elec       q    Type
REMARK                         _______ _______ _______ _____ _____    ______ ____
ROOT
ATOM      1  C   UNL     1       2.548   6.054  -5.623  0.00  0.00    +0.127 C 
ENDROOT
BRANCH   1   2
ATOM      2  C   UNL     1       3.141   6.460  -6.937  0.00  0.00    -0.009 A 
ATOM      3  C   UNL     1       4.150   5.738  -7.533  0.00  0.00    -0.003 A 
ATOM      4  C   UNL     1       4.389   5.867  -8.895  0.00  0.00    -0.000 A 
ATOM      5  C   UNL     1       3.353   6.306  -9.709  0.00  0.00    -0.000 A 
ATOM      6  C   UNL     1       2.467   7.214  -9.145  0.00  0.00    -0.000 A 
ATOM      7  C   UNL     1       2.277   7.132  -7.793  0.00  0.00    -0.003 A 
ENDBRANCH   1   2
BRANCH   1   8
ATOM      8  C   UNL     1       3.344   6.559  -4.482  0.00  0.00    +0.070 A 
ATOM      9  N   UNL     1       2.661   6.959  -3.383  0.00  0.00    -0.247 NA
ATOM     10  C   UNL     1       3.313   7.573  -2.386  0.00  0.00    +0.098 A 
ATOM     11  C   UNL     1       4.595   8.078  -2.535  0.00  0.00    +0.021 A 
ATOM     12  C   UNL     1       5.127   8.021  -3.808  0.00  0.00    +0.003 A 
ATOM     13  C   UNL     1       4.551   7.174  -4.718  0.00  0.00    +0.016 A 
ENDBRANCH   1   8
BRANCH   1  14
ATOM     14  C   UNL     1       2.545   4.573  -5.607  0.00  0.00    +0.269 C 
ATOM     15  O   UNL     1       3.314   4.003  -4.778  0.00  0.00    -0.271 OA
ATOM     16  N   UNL     1       1.914   3.767  -6.580  0.00  0.00    -0.087 NA
ENDBRANCH   1  14
BRANCH   1  17
ATOM     17  C   UNL     1       1.144   6.631  -5.565  0.00  0.00    +0.036 C 
BRANCH  17  18
ATOM     18  C   UNL     1       0.187   5.609  -4.966  0.00  0.00    +0.073 C 
BRANCH  18  19
ATOM     19  N   UNL     1      -0.846   6.304  -4.247  0.00  0.00    -0.275 NA
BRANCH  19  20
ATOM     20  C   UNL     1      -2.122   6.304  -4.913  0.00  0.00    +0.058 C 
ATOM     21  C   UNL     1      -2.616   7.713  -5.215  0.00  0.00    +0.017 C 
ATOM     22  C   UNL     1      -1.999   5.535  -6.216  0.00  0.00    +0.017 C 
ENDBRANCH  19  20
BRANCH  19  24
ATOM     23  C   UNL     1       0.157   5.033  -2.413  0.00  0.00    +0.017 C 
ATOM     24  C   UNL     1      -0.936   5.953  -2.857  0.00  0.00    +0.058 C 
ATOM     25  C   UNL     1      -2.302   5.499  -2.428  0.00  0.00    +0.017 C 
ENDBRANCH  19  24
ENDBRANCH  18  19
ENDBRANCH  17  18
ENDBRANCH   1  17
TORSDOF 8
ENDMDL
MODEL 5
REMARK VINA RESULT:      -7.2      1.713      5.800
REMARK  Name = 
REMARK  8 active torsions:
REMARK  status: ('A' for Active; 'I' for Inactive)
REMARK    1  A    between atoms: C_2  and  N_4
REMARK    2  A    between atoms: N_4  and  C_5
REMARK    3  A    between atoms: N_4  and  C_23
REMARK    4  A    between atoms: C_5  and  C_6
REMARK    5  A    between atoms: C_6  and  C_7
REMARK    6  A    between atoms: C_7  and  C_8
REMARK    7  A    between atoms: C_7  and  C_11
REMARK    8  A    between atoms: C_7  and  C_17
REMARK                            x       y       z     vdW  Elec       q    Type
REMARK                         _______ _______ _______ _____ _____    ______ ____
ROOT
ATOM      1  C   UNL     1       0.839   6.033  -6.374  0.00  0.00    +0.127 C 
ENDROOT
BRANCH   1   2
ATOM      2  C   UNL     1      -0.569   6.420  -6.043  0.00  0.00    -0.009 A 
ATOM      3  C   UNL     1      -1.578   5.488  -5.959  0.00  0.00    -0.003 A 
ATOM      4  C   UNL     1      -2.743   5.781  -5.261  0.00  0.00    -0.000 A 
ATOM      5  C   UNL     1      -2.693   6.758  -4.274  0.00  0.00    -0.000 A 
ATOM      6  C   UNL     1      -1.816   7.813  -4.493  0.00  0.00    -0.000 A 
ATOM      7  C   UNL     1      -0.700   7.543  -5.235  0.00  0.00    -0.003 A 
ENDBRANCH   1   2
BRANCH   1   8
ATOM      8  C   UNL     1       1.027   5.830  -7.827  0.00  0.00    +0.070 A 
ATOM      9  N   UNL     1       2.036   6.510  -8.419  0.00  0.00    -0.247 NA
ATOM     10  C   UNL     1       2.153   6.492  -9.754  0.00  0.00    +0.098 A 
ATOM     11  C   UNL     1       1.134   6.052 -10.585  0.00  0.00    +0.021 A 
ATOM     12  C   UNL     1      -0.061   5.740  -9.967  0.00  0.00    +0.003 A 
ATOM     13  C   UNL     1      -0.060   5.528  -8.614  0.00  0.00    +0.016 A 
ENDBRANCH   1   8
BRANCH   1  14
ATOM     14  C   UNL     1       1.100   4.762  -5.659  0.00  0.00    +0.269 C 
ATOM     15  O   UNL     1       0.951   4.765  -4.402  0.00  0.00    -0.271 OA
ATOM     16  N   UNL     1       1.698   3.625  -6.247  0.00  0.00    -0.087 NA
ENDBRANCH   1  14
BRANCH   1  17
ATOM     17  C   UNL     1       1.740   7.156  -5.891  0.00  0.00    +0.036 C 
BRANCH  17  18
ATOM     18  C   UNL     1       2.640   6.655  -4.769  0.00  0.00    +0.073 C 
BRANCH  18  19
ATOM     19  N   UNL     1       4.008   6.933  -5.112  0.00  0.00    -0.275 NA
BRANCH  19  20
ATOM     20  C   UNL     1       4.651   7.874  -4.232  0.00  0.00    +0.058 C 
ATOM     21  C   UNL     1       3.962   7.963  -2.878  0.00  0.00    +0.017 C 
ATOM     22  C   UNL     1       6.093   7.450  -4.024  0.00  0.00    +0.017 C 
ENDBRANCH  19  20
BRANCH  19  24
ATOM     23  C   UNL     1       4.797   5.348  -6.800  0.00  0.00    +0.017 C 
ATOM     24  C   UNL     1       4.803   5.762  -5.362  0.00  0.00    +0.058 C 
ATOM     25  C   UNL     1       4.533   4.626  -4.418  0.00  0.00    +0.017 C 
ENDBRANCH  19  24
ENDBRANCH  18  19
ENDBRANCH  17  18
ENDBRANCH   1  17
TORSDOF 8
ENDMDL
MODEL 6
REMARK VINA RESULT:      -7.2      2.388      5.113
REMARK  Name = 
REMARK  8 active torsions:
REMARK  status: ('A' for Active; 'I' for Inactive)
REMARK    1  A    between atoms: C_2  and  N_4
REMARK    2  A    between atoms: N_4  and  C_5
REMARK    3  A    between atoms: N_4  and  C_23
REMARK    4  A    between atoms: C_5  and  C_6
REMARK    5  A    between atoms: C_6  and  C_7
REMARK    6  A    between atoms: C_7  and  C_8
REMARK    7  A    between atoms: C_7  and  C_11
REMARK    8  A    between atoms: C_7  and  C_17
REMARK                            x       y       z     vdW  Elec       q    Type
REMARK                         _______ _______ _______ _____ _____    ______ ____
ROOT
ATOM      1  C   UNL     1       3.460   5.950  -9.380  0.00  0.00    +0.127 C 
ENDROOT
BRANCH   1   2
ATOM      2  C   UNL     1       2.383   6.272 -10.369  0.00  0.00    -0.009 A 
ATOM      3  C   UNL     1       2.257   5.583 -11.555  0.00  0.00    -0.003 A 
ATOM      4  C   UNL     1       1.050   5.595 -12.243  0.00  0.00    -0.000 A 
ATOM      5  C   UNL     1      -0.114   5.858 -11.532  0.00  0.00    -0.000 A 
ATOM      6  C   UNL     1       0.002   6.738 -10.464  0.00  0.00    -0.000 A 
ATOM      7  C   UNL     1       1.209   6.776  -9.824  0.00  0.00    -0.003 A 
ENDBRANCH   1   2
BRANCH   1   8
ATOM      8  C   UNL     1       4.810   6.148  -9.953  0.00  0.00    +0.070 A 
ATOM      9  N   UNL     1       5.863   5.738  -9.208  0.00  0.00    -0.247 NA
ATOM     10  C   UNL     1       7.109   6.037  -9.600  0.00  0.00    +0.098 A 
ATOM     11  C   UNL     1       7.374   6.986 -10.576  0.00  0.00    +0.021 A 
ATOM     12  C   UNL     1       6.287   7.699 -11.042  0.00  0.00    +0.003 A 
ATOM     13  C   UNL     1       5.033   7.199 -10.812  0.00  0.00    +0.016 A 
ENDBRANCH   1   8
BRANCH   1  14
ATOM     14  C   UNL     1       3.281   4.525  -9.018  0.00  0.00    +0.269 C 
ATOM     15  O   UNL     1       4.291   3.769  -9.127  0.00  0.00    -0.271 OA
ATOM     16  N   UNL     1       2.031   3.917  -8.766  0.00  0.00    -0.087 NA
ENDBRANCH   1  14
BRANCH   1  17
ATOM     17  C   UNL     1       3.267   6.872  -8.189  0.00  0.00    +0.036 C 
BRANCH  17  18
ATOM     18  C   UNL     1       3.432   6.089  -6.893  0.00  0.00    +0.073 C 
BRANCH  18  19
ATOM     19  N   UNL     1       2.884   6.860  -5.811  0.00  0.00    -0.275 NA
BRANCH  19  20
ATOM     20  C   UNL     1       1.701   6.286  -5.225  0.00  0.00    +0.058 C 
ATOM     21  C   UNL     1       0.424   6.827  -5.852  0.00  0.00    +0.017 C 
ATOM     22  C   UNL     1       1.741   4.780  -5.407  0.00  0.00    +0.017 C 
ENDBRANCH  19  20
BRANCH  19  24
ATOM     23  C   UNL     1       5.099   6.451  -4.858  0.00  0.00    +0.017 C 
ATOM     24  C   UNL     1       3.852   7.277  -4.834  0.00  0.00    +0.058 C 
ATOM     25  C   UNL     1       3.288   7.458  -3.453  0.00  0.00    +0.017 C 
ENDBRANCH  19  24
ENDBRANCH  18  19
ENDBRANCH  17  18
ENDBRANCH   1  17
TORSDOF 8
ENDMDL
MODEL 7
REMARK VINA RESULT:      -7.2      1.799      5.614
REMARK  Name = 
REMARK  8 active torsions:
REMARK  status: ('A' for Active; 'I' for Inactive)
REMARK    1  A    between atoms: C_2  and  N_4
REMARK    2  A    between atoms: N_4  and  C_5
REMARK    3  A    between atoms: N_4  and  C_23
REMARK    4  A    between atoms: C_5  and  C_6
REMARK    5  A    between atoms: C_6  and  C_7
REMARK    6  A    between atoms: C_7  and  C_8
REMARK    7  A    between atoms: C_7  and  C_11
REMARK    8  A    between atoms: C_7  and  C_17
REMARK                            x       y       z     vdW  Elec       q    Type
REMARK                         _______ _______ _______ _____ _____    ______ ____
ROOT
ATOM      1  C   UNL     1       1.356   6.047  -6.024  0.00  0.00    +0.127 C 
ENDROOT
BRANCH   1   2
ATOM      2  C   UNL     1       2.286   6.783  -5.109  0.00  0.00    -0.009 A 
ATOM      3  C   UNL     1       2.282   6.574  -3.748  0.00  0.00    -0.003 A 
ATOM      4  C   UNL     1       3.389   6.923  -2.985  0.00  0.00    -0.000 A 
ATOM      5  C   UNL     1       4.625   7.005  -3.614  0.00  0.00    -0.000 A 
ATOM      6  C   UNL     1       4.619   7.435  -4.934  0.00  0.00    -0.000 A 
ATOM      7  C   UNL     1       3.503   7.149  -5.671  0.00  0.00    -0.003 A 
ENDBRANCH   1   2
BRANCH   1   8
ATOM      8  C   UNL     1      -0.059   6.227  -5.630  0.00  0.00    +0.070 A 
ATOM      9  N   UNL     1      -1.000   5.750  -6.478  0.00  0.00    -0.247 NA
ATOM     10  C   UNL     1      -2.292   6.025  -6.255  0.00  0.00    +0.098 A 
ATOM     11  C   UNL     1      -2.701   7.007  -5.366  0.00  0.00    +0.021 A 
ATOM     12  C   UNL     1      -1.700   7.775  -4.805  0.00  0.00    +0.003 A 
ATOM     13  C   UNL     1      -0.414   7.306  -4.856  0.00  0.00    +0.016 A 
ENDBRANCH   1   8
BRANCH   1  14
ATOM     14  C   UNL     1       1.720   4.615  -5.925  0.00  0.00    +0.269 C 
ATOM     15  O   UNL     1       0.770   3.782  -5.845  0.00  0.00    -0.271 OA
ATOM     16  N   UNL     1       3.031   4.139  -5.702  0.00  0.00    -0.087 NA
ENDBRANCH   1  14
BRANCH   1  17
ATOM     17  C   UNL     1       1.574   6.597  -7.423  0.00  0.00    +0.036 C 
BRANCH  17  18
ATOM     18  C   UNL     1       1.679   5.452  -8.422  0.00  0.00    +0.073 C 
BRANCH  18  19
ATOM     19  N   UNL     1       2.050   5.985  -9.704  0.00  0.00    -0.275 NA
BRANCH  19  20
ATOM     20  C   UNL     1       3.384   5.638 -10.117  0.00  0.00    +0.058 C 
ATOM     21  C   UNL     1       4.338   6.823 -10.049  0.00  0.00    +0.017 C 
ATOM     22  C   UNL     1       3.907   4.532  -9.218  0.00  0.00    +0.017 C 
ENDBRANCH  19  20
BRANCH  19  24
ATOM     23  C   UNL     1       0.153   6.950 -10.911  0.00  0.00    +0.017 C 
ATOM     24  C   UNL     1       1.070   5.780 -10.735  0.00  0.00    +0.058 C 
ATOM     25  C   UNL     1       0.344   4.469 -10.636  0.00  0.00    +0.017 C 
ENDBRANCH  19  24
ENDBRANCH  18  19
ENDBRANCH  17  18
ENDBRANCH   1  17
TORSDOF 8
ENDMDL
MODEL 8
REMARK VINA RESULT:      -7.1      2.394      4.362
REMARK  Name = 
REMARK  8 active torsions:
REMARK  status: ('A' for Active; 'I' for Inactive)
REMARK    1  A    between atoms: C_2  and  N_4
REMARK    2  A    between atoms: N_4  and  C_5
REMARK    3  A    between atoms: N_4  and  C_23
REMARK    4  A    between atoms: C_5  and  C_6
REMARK    5  A    between atoms: C_6  and  C_7
REMARK    6  A    between atoms: C_7  and  C_8
REMARK    7  A    between atoms: C_7  and  C_11
REMARK    8  A    between atoms: C_7  and  C_17
REMARK                            x       y       z     vdW  Elec       q    Type
REMARK                         _______ _______ _______ _____ _____    ______ ____
ROOT
ATOM      1  C   UNL     1       2.045   5.813  -1.714  0.00  0.00    +0.127 C 
ENDROOT
BRANCH   1   2
ATOM      2  C   UNL     1       2.898   6.393  -2.799  0.00  0.00    -0.009 A 
ATOM      3  C   UNL     1       3.516   7.616  -2.662  0.00  0.00    -0.003 A 
ATOM      4  C   UNL     1       4.605   7.941  -3.460  0.00  0.00    -0.000 A 
ATOM      5  C   UNL     1       5.353   6.907  -4.010  0.00  0.00    -0.000 A 
ATOM      6  C   UNL     1       4.657   5.753  -4.346  0.00  0.00    -0.000 A 
ATOM      7  C   UNL     1       3.546   5.464  -3.603  0.00  0.00    -0.003 A 
ENDBRANCH   1   2
BRANCH   1   8
ATOM      8  C   UNL     1       1.684   6.827  -0.697  0.00  0.00    +0.070 A 
ATOM      9  N   UNL     1       2.648   7.188   0.182  0.00  0.00    -0.247 NA
ATOM     10  C   UNL     1       2.336   7.977   1.219  0.00  0.00    +0.098 A 
ATOM     11  C   UNL     1       1.026   8.213   1.606  0.00  0.00    +0.021 A 
ATOM     12  C   UNL     1       0.055   7.495   0.937  0.00  0.00    +0.003 A 
ATOM     13  C   UNL     1       0.384   6.912  -0.258  0.00  0.00    +0.016 A 
ENDBRANCH   1   8
BRANCH   1  14
ATOM     14  C   UNL     1       2.847   4.741  -1.081  0.00  0.00    +0.269 C 
ATOM     15  O   UNL     1       2.225   3.712  -0.684  0.00  0.00    -0.271 OA
ATOM     16  N   UNL     1       4.202   4.876  -0.705  0.00  0.00    -0.087 NA
ENDBRANCH   1  14
BRANCH   1  17
ATOM     17  C   UNL     1       0.786   5.275  -2.371  0.00  0.00    +0.036 C 
BRANCH  17  18
ATOM     18  C   UNL     1       0.275   6.268  -3.407  0.00  0.00    +0.073 C 
BRANCH  18  19
ATOM     19  N   UNL     1      -0.625   5.589  -4.298  0.00  0.00    -0.275 NA
BRANCH  19  20
ATOM     20  C   UNL     1      -1.982   6.064  -4.231  0.00  0.00    +0.058 C 
ATOM     21  C   UNL     1      -2.837   5.239  -3.279  0.00  0.00    +0.017 C 
ATOM     22  C   UNL     1      -1.978   7.508  -3.765  0.00  0.00    +0.017 C 
ENDBRANCH  19  20
BRANCH  19  24
ATOM     23  C   UNL     1       0.872   6.505  -6.002  0.00  0.00    +0.017 C 
ATOM     24  C   UNL     1      -0.138   5.461  -5.644  0.00  0.00    +0.058 C 
ATOM     25  C   UNL     1      -1.221   5.307  -6.674  0.00  0.00    +0.017 C 
ENDBRANCH  19  24
ENDBRANCH  18  19
ENDBRANCH  17  18
ENDBRANCH   1  17
TORSDOF 8
ENDMDL
MODEL 9
REMARK VINA RESULT:      -6.9      2.775      7.434
REMARK  Name = 
REMARK  8 active torsions:
REMARK  status: ('A' for Active; 'I' for Inactive)
REMARK    1  A    between atoms: C_2  and  N_4
REMARK    2  A    between atoms: N_4  and  C_5
REMARK    3  A    between atoms: N_4  and  C_23
REMARK    4  A    between atoms: C_5  and  C_6
REMARK    5  A    between atoms: C_6  and  C_7
REMARK    6  A    between atoms: C_7  and  C_8
REMARK    7  A    between atoms: C_7  and  C_11
REMARK    8  A    between atoms: C_7  and  C_17
REMARK                            x       y       z     vdW  Elec       q    Type
REMARK                         _______ _______ _______ _____ _____    ______ ____
ROOT
ATOM      1  C   UNL     1       2.536   5.850  -8.482  0.00  0.00    +0.127 C 
ENDROOT
BRANCH   1   2
ATOM      2  C   UNL     1       2.221   6.560  -7.201  0.00  0.00    -0.009 A 
ATOM      3  C   UNL     1       1.002   6.426  -6.577  0.00  0.00    -0.003 A 
ATOM      4  C   UNL     1       0.871   6.730  -5.228  0.00  0.00    -0.000 A 
ATOM      5  C   UNL     1       2.006   6.683  -4.427  0.00  0.00    -0.000 A 
ATOM      6  C   UNL     1       3.203   7.040  -5.033  0.00  0.00    -0.000 A 
ATOM      7  C   UNL     1       3.312   6.802  -6.375  0.00  0.00    -0.003 A 
ENDBRANCH   1   2
BRANCH   1   8
ATOM      8  C   UNL     1       1.356   5.776  -9.373  0.00  0.00    +0.070 A 
ATOM      9  N   UNL     1       1.132   4.598 -10.001  0.00  0.00    -0.247 NA
ATOM     10  C   UNL     1       0.179   4.519 -10.940  0.00  0.00    +0.098 A 
ATOM     11  C   UNL     1      -0.400   5.644 -11.508  0.00  0.00    +0.021 A 
ATOM     12  C   UNL     1       0.143   6.859 -11.140  0.00  0.00    +0.003 A 
ATOM     13  C   UNL     1       0.919   6.911 -10.013  0.00  0.00    +0.016 A 
ENDBRANCH   1   8
BRANCH   1  14
ATOM     14  C   UNL     1       2.960   4.482  -8.106  0.00  0.00    +0.269 C 
ATOM     15  O   UNL     1       3.750   3.885  -8.895  0.00  0.00    -0.271 OA
ATOM     16  N   UNL     1       2.388   3.730  -7.056  0.00  0.00    -0.087 NA
ENDBRANCH   1  14
BRANCH   1  17
ATOM     17  C   UNL     1       3.647   6.627  -9.165  0.00  0.00    +0.036 C 
BRANCH  17  18
ATOM     18  C   UNL     1       4.632   5.663  -9.815  0.00  0.00    +0.073 C 
BRANCH  18  19
ATOM     19  N   UNL     1       5.027   6.192 -11.091  0.00  0.00    -0.275 NA
BRANCH  19  20
ATOM     20  C   UNL     1       6.411   6.581 -11.159  0.00  0.00    +0.058 C 
ATOM     21  C   UNL     1       6.583   8.092 -11.238  0.00  0.00    +0.017 C 
ATOM     22  C   UNL     1       7.130   6.067  -9.926  0.00  0.00    +0.017 C 
ENDBRANCH  19  20
BRANCH  19  24
ATOM     23  C   UNL     1       5.654   5.298 -13.281  0.00  0.00    +0.017 C 
ATOM     24  C   UNL     1       4.609   5.397 -12.214  0.00  0.00    +0.058 C 
ATOM     25  C   UNL     1       3.252   5.757 -12.747  0.00  0.00    +0.017 C 
ENDBRANCH  19  24
ENDBRANCH  18  19
ENDBRANCH  17  18
ENDBRANCH   1  17
TORSDOF 8
ENDMDL
