MODEL 1
REMARK VINA RESULT:      -7.7      0.000      0.000
REMARK  Name = 
REMARK  6 active torsions:
REMARK  status: ('A' for Active; 'I' for Inactive)
REMARK    1  A    between atoms: C_2  and  O_3
REMARK    2  A    between atoms: O_3  and  C_4
REMARK    3  A    between atoms: N_6  and  C_7
REMARK    4  A    between atoms: C_10  and  N_11
REMARK    5  A    between atoms: N_11  and  C_12
REMARK    6  A    between atoms: C_12  and  C_13
REMARK                            x       y       z     vdW  Elec       q    Type
REMARK                         _______ _______ _______ _____ _____    ______ ____
ROOT
ATOM      1  C   UNL     1       1.237   5.843  -6.023  0.00  0.00    +0.093 A 
ATOM      2  C   UNL     1       1.895   4.848  -6.734  0.00  0.00    +0.106 A 
ATOM      3  N   UNL     1       1.841   3.541  -6.154  0.00  0.00    -0.127 NA
ATOM      4  C   UNL     1       2.408   5.069  -8.007  0.00  0.00    +0.035 A 
ATOM      5  C   UNL     1       2.421   6.357  -8.530  0.00  0.00    +0.067 A 
ATOM      6  C   UNL     1       2.085   7.398  -7.673  0.00  0.00    +0.018 A 
ATOM      7  C   UNL     1       1.500   7.142  -6.439  0.00  0.00    +0.019 A 
ENDROOT
BRANCH   1   9
ATOM      8  C   UNL     1      -1.246   5.608  -6.040  0.00  0.00    +0.425 C 
ATOM      9  N   UNL     1       0.004   5.579  -5.340  0.00  0.00    -0.141 NA
ATOM     10  O   UNL     1      -1.201   5.298  -7.254  0.00  0.00    -0.224 OA
BRANCH   8  11
ATOM     11  O   UNL     1      -2.372   6.234  -5.553  0.00  0.00    -0.433 OA
BRANCH  11  13
ATOM     12  C   UNL     1      -3.098   5.270  -3.510  0.00  0.00    +0.051 C 
ATOM     13  C   UNL     1      -2.578   6.534  -4.178  0.00  0.00    +0.210 C 
ENDBRANCH  11  13
ENDBRANCH   8  11
ENDBRANCH   1   9
BRANCH   5  14
ATOM     14  N   UNL     1       2.632   6.590  -9.908  0.00  0.00    -0.233 NA
BRANCH  14  15
ATOM     15  C   UNL     1       3.634   5.926 -10.700  0.00  0.00    +0.139 C 
BRANCH  15  16
ATOM     16  C   UNL     1       4.976   6.467 -10.412  0.00  0.00    -0.001 A 
ATOM     17  C   UNL     1       5.829   5.685  -9.647  0.00  0.00    -0.000 A 
ATOM     18  C   UNL     1       7.198   5.895  -9.745  0.00  0.00    +0.029 A 
ATOM     19  C   UNL     1       7.738   6.674 -10.763  0.00  0.00    +0.140 A 
ATOM     20  F   UNL     1       8.865   6.267 -11.417  0.00  0.00    -0.204 F 
ATOM     21  C   UNL     1       6.870   7.605 -11.318  0.00  0.00    +0.029 A 
ATOM     22  C   UNL     1       5.517   7.578 -11.002  0.00  0.00    -0.000 A 
ENDBRANCH  15  16
ENDBRANCH  14  15
ENDBRANCH   5  14
TORSDOF 6
ENDMDL
MODEL 2
REMARK VINA RESULT:      -7.6      1.946      2.409
REMARK  Name = 
REMARK  6 active torsions:
REMARK  status: ('A' for Active; 'I' for Inactive)
REMARK    1  A    between atoms: C_2  and  O_3
REMARK    2  A    between atoms: O_3  and  C_4
REMARK    3  A    between atoms: N_6  and  C_7
REMARK    4  A    between atoms: C_10  and  N_11
REMARK    5  A    between atoms: N_11  and  C_12
REMARK    6  A    between atoms: C_12  and  C_13
REMARK                            x       y       z     vdW  Elec       q    Type
REMARK                         _______ _______ _______ _____ _____    ______ ____
ROOT
ATOM      1  C   UNL     1       2.007   7.032  -5.168  0.00  0.00    +0.093 A 
ATOM      2  C   UNL     1       3.324   6.643  -4.958  0.00  0.00    +0.106 A 
ATOM      3  N   UNL     1       3.765   6.684  -3.598  0.00  0.00    -0.127 NA
ATOM      4  C   UNL     1       4.095   6.079  -5.967  0.00  0.00    +0.035 A 
ATOM      5  C   UNL     1       3.611   6.050  -7.269  0.00  0.00    +0.067 A 
ATOM      6  C   UNL     1       2.444   6.757  -7.533  0.00  0.00    +0.018 A 
ATOM      7  C   UNL     1       1.655   7.239  -6.496  0.00  0.00    +0.019 A 
ENDROOT
BRANCH   1   9
ATOM      8  C   UNL     1       0.176   5.525  -4.394  0.00  0.00    +0.425 C 
ATOM      9  N   UNL     1       0.974   6.704  -4.230  0.00  0.00    -0.141 NA
ATOM     10  O   UNL     1       0.735   4.562  -4.970  0.00  0.00    -0.224 OA
BRANCH   8  11
ATOM     11  O   UNL     1      -1.193   5.511  -4.249  0.00  0.00    -0.433 OA
BRANCH  11  13
ATOM     12  C   UNL     1      -2.212   5.692  -6.384  0.00  0.00    +0.051 C 
ATOM     13  C   UNL     1      -2.077   6.326  -5.009  0.00  0.00    +0.210 C 
ENDBRANCH  11  13
ENDBRANCH   8  11
ENDBRANCH   1   9
BRANCH   5  14
ATOM     14  N   UNL     1       4.199   5.225  -8.255  0.00  0.00    -0.233 NA
BRANCH  14  15
ATOM     15  C   UNL     1       5.615   5.005  -8.391  0.00  0.00    +0.139 C 
BRANCH  15  16
ATOM     16  C   UNL     1       6.132   5.643  -9.615  0.00  0.00    -0.001 A 
ATOM     17  C   UNL     1       5.210   5.996 -10.590  0.00  0.00    -0.000 A 
ATOM     18  C   UNL     1       5.546   6.990 -11.501  0.00  0.00    +0.029 A 
ATOM     19  C   UNL     1       6.655   7.805 -11.303  0.00  0.00    +0.140 A 
ATOM     20  F   UNL     1       6.574   9.148 -11.539  0.00  0.00    -0.204 F 
ATOM     21  C   UNL     1       7.647   7.267 -10.493  0.00  0.00    +0.029 A 
ATOM     22  C   UNL     1       7.414   6.096  -9.782  0.00  0.00    -0.000 A 
ENDBRANCH  15  16
ENDBRANCH  14  15
ENDBRANCH   5  14
TORSDOF 6
ENDMDL
MODEL 3
REMARK VINA RESULT:      -7.6      2.194      3.133
REMARK  Name = 
REMARK  6 active torsions:
REMARK  status: ('A' for Active; 'I' for Inactive)
REMARK    1  A    between atoms: C_2  and  O_3
REMARK    2  A    between atoms: O_3  and  C_4
REMARK    3  A    between atoms: N_6  and  C_7
REMARK    4  A    between atoms: C_10  and  N_11
REMARK    5  A    between atoms: N_11  and  C_12
REMARK    6  A    between atoms: C_12  and  C_13
REMARK                            x       y       z     vdW  Elec       q    Type
REMARK                         _______ _______ _______ _____ _____    ______ ____
ROOT
ATOM      1  C   UNL     1       0.977   4.590  -5.827  0.00  0.00    +0.093 A 
ATOM      2  C   UNL     1       0.163   5.264  -6.728  0.00  0.00    +0.106 A 
ATOM      3  N   UNL     1      -1.114   5.665  -6.220  0.00  0.00    -0.127 NA
ATOM      4  C   UNL     1       0.626   5.680  -7.970  0.00  0.00    +0.035 A 
ATOM      5  C   UNL     1       1.882   5.276  -8.408  0.00  0.00    +0.067 A 
ATOM      6  C   UNL     1       2.543   4.315  -7.652  0.00  0.00    +0.018 A 
ATOM      7  C   UNL     1       2.096   3.979  -6.380  0.00  0.00    +0.019 A 
ENDROOT
BRANCH   1   9
ATOM      8  C   UNL     1       1.829   6.028  -3.976  0.00  0.00    +0.425 C 
ATOM      9  N   UNL     1       1.009   4.948  -4.439  0.00  0.00    -0.141 NA
ATOM     10  O   UNL     1       2.032   6.953  -4.798  0.00  0.00    -0.224 OA
BRANCH   8  11
ATOM     11  O   UNL     1       2.623   5.949  -2.853  0.00  0.00    -0.433 OA
BRANCH  11  13
ATOM     12  C   UNL     1       4.617   5.067  -3.790  0.00  0.00    +0.051 C 
ATOM     13  C   UNL     1       3.613   4.947  -2.654  0.00  0.00    +0.210 C 
ENDBRANCH  11  13
ENDBRANCH   8  11
ENDBRANCH   1   9
BRANCH   5  14
ATOM     14  N   UNL     1       2.522   5.910  -9.496  0.00  0.00    -0.233 NA
BRANCH  14  15
ATOM     15  C   UNL     1       3.598   5.332 -10.257  0.00  0.00    +0.139 C 
BRANCH  15  16
ATOM     16  C   UNL     1       4.839   6.111 -10.090  0.00  0.00    -0.001 A 
ATOM     17  C   UNL     1       5.856   5.538  -9.341  0.00  0.00    -0.000 A 
ATOM     18  C   UNL     1       7.161   5.972  -9.542  0.00  0.00    +0.029 A 
ATOM     19  C   UNL     1       7.498   6.761 -10.636  0.00  0.00    +0.140 A 
ATOM     20  F   UNL     1       8.641   6.509 -11.340  0.00  0.00    -0.204 F 
ATOM     21  C   UNL     1       6.452   7.491 -11.184  0.00  0.00    +0.029 A 
ATOM     22  C   UNL     1       5.144   7.256 -10.777  0.00  0.00    -0.000 A 
ENDBRANCH  15  16
ENDBRANCH  14  15
ENDBRANCH   5  14
TORSDOF 6
ENDMDL
MODEL 4
REMARK VINA RESULT:      -7.5      3.861      8.396
REMARK  Name = 
REMARK  6 active torsions:
REMARK  status: ('A' for Active; 'I' for Inactive)
REMARK    1  A    between atoms: C_2  and  O_3
REMARK    2  A    between atoms: O_3  and  C_4
REMARK    3  A    between atoms: N_6  and  C_7
REMARK    4  A    between atoms: C_10  and  N_11
REMARK    5  A    between atoms: N_11  and  C_12
REMARK    6  A    between atoms: C_12  and  C_13
REMARK                            x       y       z     vdW  Elec       q    Type
REMARK                         _______ _______ _______ _____ _____    ______ ____
ROOT
ATOM      1  C   UNL     1       2.132   6.543  -9.545  0.00  0.00    +0.093 A 
ATOM      2  C   UNL     1       0.905   5.933  -9.777  0.00  0.00    +0.106 A 
ATOM      3  N   UNL     1       0.666   5.531 -11.129  0.00  0.00    -0.127 NA
ATOM      4  C   UNL     1       0.054   5.573  -8.739  0.00  0.00    +0.035 A 
ATOM      5  C   UNL     1       0.343   5.975  -7.440  0.00  0.00    +0.067 A 
ATOM      6  C   UNL     1       1.382   6.882  -7.268  0.00  0.00    +0.018 A 
ATOM      7  C   UNL     1       2.263   7.159  -8.306  0.00  0.00    +0.019 A 
ENDROOT
BRANCH   1   9
ATOM      8  C   UNL     1       4.179   5.122  -9.647  0.00  0.00    +0.425 C 
ATOM      9  N   UNL     1       3.318   6.112 -10.224  0.00  0.00    -0.141 NA
ATOM     10  O   UNL     1       3.623   4.280  -8.903  0.00  0.00    -0.224 OA
BRANCH   8  11
ATOM     11  O   UNL     1       5.551   5.238  -9.613  0.00  0.00    -0.433 OA
BRANCH  11  13
ATOM     12  C   UNL     1       7.555   6.430 -10.054  0.00  0.00    +0.051 C 
ATOM     13  C   UNL     1       6.324   5.786 -10.674  0.00  0.00    +0.210 C 
ENDBRANCH  11  13
ENDBRANCH   8  11
ENDBRANCH   1   9
BRANCH   5  14
ATOM     14  N   UNL     1      -0.298   5.385  -6.328  0.00  0.00    -0.233 NA
BRANCH  14  15
ATOM     15  C   UNL     1      -1.717   5.165  -6.230  0.00  0.00    +0.139 C 
BRANCH  15  16
ATOM     16  C   UNL     1      -2.314   6.029  -5.195  0.00  0.00    -0.001 A 
ATOM     17  C   UNL     1      -2.830   5.410  -4.066  0.00  0.00    -0.000 A 
ATOM     18  C   UNL     1      -2.954   6.147  -2.895  0.00  0.00    +0.029 A 
ATOM     19  C   UNL     1      -2.344   7.389  -2.757  0.00  0.00    +0.140 A 
ATOM     20  F   UNL     1      -1.705   7.717  -1.596  0.00  0.00    -0.204 F 
ATOM     21  C   UNL     1      -2.075   8.051  -3.948  0.00  0.00    +0.029 A 
ATOM     22  C   UNL     1      -2.221   7.395  -5.164  0.00  0.00    -0.000 A 
ENDBRANCH  15  16
ENDBRANCH  14  15
ENDBRANCH   5  14
TORSDOF 6
ENDMDL
MODEL 5
REMARK VINA RESULT:      -7.4      1.859      2.684
REMARK  Name = 
REMARK  6 active torsions:
REMARK  status: ('A' for Active; 'I' for Inactive)
REMARK    1  A    between atoms: C_2  and  O_3
REMARK    2  A    between atoms: O_3  and  C_4
REMARK    3  A    between atoms: N_6  and  C_7
REMARK    4  A    between atoms: C_10  and  N_11
REMARK    5  A    between atoms: N_11  and  C_12
REMARK    6  A    between atoms: C_12  and  C_13
REMARK                            x       y       z     vdW  Elec       q    Type
REMARK                         _______ _______ _______ _____ _____    ______ ____
ROOT
ATOM      1  C   UNL     1       2.007   5.343  -7.507  0.00  0.00    +0.093 A 
ATOM      2  C   UNL     1       2.692   6.493  -7.878  0.00  0.00    +0.106 A 
ATOM      3  N   UNL     1       2.157   7.718  -7.366  0.00  0.00    -0.127 NA
ATOM      4  C   UNL     1       3.912   6.441  -8.541  0.00  0.00    +0.035 A 
ATOM      5  C   UNL     1       4.394   5.222  -9.002  0.00  0.00    +0.067 A 
ATOM      6  C   UNL     1       3.537   4.130  -8.938  0.00  0.00    +0.018 A 
ATOM      7  C   UNL     1       2.362   4.192  -8.199  0.00  0.00    +0.019 A 
ENDROOT
BRANCH   1   9
ATOM      8  C   UNL     1       0.018   5.319  -6.001  0.00  0.00    +0.425 C 
ATOM      9  N   UNL     1       1.433   5.207  -6.200  0.00  0.00    -0.141 NA
ATOM     10  O   UNL     1      -0.700   4.967  -6.968  0.00  0.00    -0.224 OA
BRANCH   8  11
ATOM     11  O   UNL     1      -0.548   6.053  -4.983  0.00  0.00    -0.433 OA
BRANCH  11  13
ATOM     12  C   UNL     1      -2.012   7.866  -4.534  0.00  0.00    +0.051 C 
ATOM     13  C   UNL     1      -0.609   7.474  -4.974  0.00  0.00    +0.210 C 
ENDBRANCH  11  13
ENDBRANCH   8  11
ENDBRANCH   1   9
BRANCH   5  14
ATOM     14  N   UNL     1       5.744   5.064  -9.392  0.00  0.00    -0.233 NA
BRANCH  14  15
ATOM     15  C   UNL     1       6.739   6.101  -9.315  0.00  0.00    +0.139 C 
BRANCH  15  16
ATOM     16  C   UNL     1       7.214   6.475 -10.660  0.00  0.00    -0.001 A 
ATOM     17  C   UNL     1       8.262   5.740 -11.195  0.00  0.00    -0.000 A 
ATOM     18  C   UNL     1       8.427   5.715 -12.574  0.00  0.00    +0.029 A 
ATOM     19  C   UNL     1       7.434   6.182 -13.428  0.00  0.00    +0.140 A 
ATOM     20  F   UNL     1       7.112   5.485 -14.557  0.00  0.00    -0.204 F 
ATOM     21  C   UNL     1       6.560   7.106 -12.869  0.00  0.00    +0.029 A 
ATOM     22  C   UNL     1       6.579   7.350 -11.501  0.00  0.00    -0.000 A 
ENDBRANCH  15  16
ENDBRANCH  14  15
ENDBRANCH   5  14
TORSDOF 6
ENDMDL
MODEL 6
REMARK VINA RESULT:      -7.4      4.432      8.432
REMARK  Name = 
REMARK  6 active torsions:
REMARK  status: ('A' for Active; 'I' for Inactive)
REMARK    1  A    between atoms: C_2  and  O_3
REMARK    2  A    between atoms: O_3  and  C_4
REMARK    3  A    between atoms: N_6  and  C_7
REMARK    4  A    between atoms: C_10  and  N_11
REMARK    5  A    between atoms: N_11  and  C_12
REMARK    6  A    between atoms: C_12  and  C_13
REMARK                            x       y       z     vdW  Elec       q    Type
REMARK                         _______ _______ _______ _____ _____    ______ ____
ROOT
ATOM      1  C   UNL     1       4.442   5.711 -10.698  0.00  0.00    +0.093 A 
ATOM      2  C   UNL     1       4.810   5.661  -9.360  0.00  0.00    +0.106 A 
ATOM      3  N   UNL     1       6.158   5.251  -9.109  0.00  0.00    -0.127 NA
ATOM      4  C   UNL     1       3.990   6.152  -8.351  0.00  0.00    +0.035 A 
ATOM      5  C   UNL     1       2.693   6.553  -8.652  0.00  0.00    +0.067 A 
ATOM      6  C   UNL     1       2.216   6.270  -9.927  0.00  0.00    +0.018 A 
ATOM      7  C   UNL     1       3.080   5.856 -10.933  0.00  0.00    +0.019 A 
ENDROOT
BRANCH   1   9
ATOM      8  C   UNL     1       5.660   5.318 -12.839  0.00  0.00    +0.425 C 
ATOM      9  N   UNL     1       5.361   6.146 -11.708  0.00  0.00    -0.141 NA
ATOM     10  O   UNL     1       4.743   4.548 -13.211  0.00  0.00    -0.224 OA
BRANCH   8  11
ATOM     11  O   UNL     1       6.938   5.106 -13.307  0.00  0.00    -0.433 OA
BRANCH  11  13
ATOM     12  C   UNL     1       8.789   5.682 -11.938  0.00  0.00    +0.051 C 
ATOM     13  C   UNL     1       7.993   6.052 -13.180  0.00  0.00    +0.210 C 
ENDBRANCH  11  13
ENDBRANCH   8  11
ENDBRANCH   1   9
BRANCH   5  14
ATOM     14  N   UNL     1       1.938   7.338  -7.752  0.00  0.00    -0.233 NA
BRANCH  14  15
ATOM     15  C   UNL     1       1.839   7.084  -6.339  0.00  0.00    +0.139 C 
BRANCH  15  16
ATOM     16  C   UNL     1       0.570   6.407  -6.013  0.00  0.00    -0.001 A 
ATOM     17  C   UNL     1      -0.317   7.078  -5.183  0.00  0.00    -0.000 A 
ATOM     18  C   UNL     1      -1.663   6.739  -5.229  0.00  0.00    +0.029 A 
ATOM     19  C   UNL     1      -2.174   5.946  -6.250  0.00  0.00    +0.140 A 
ATOM     20  F   UNL     1      -3.364   6.263  -6.840  0.00  0.00    -0.204 F 
ATOM     21  C   UNL     1      -1.248   5.122  -6.877  0.00  0.00    +0.029 A 
ATOM     22  C   UNL     1       0.109   5.269  -6.620  0.00  0.00    -0.000 A 
ENDBRANCH  15  16
ENDBRANCH  14  15
ENDBRANCH   5  14
TORSDOF 6
ENDMDL
MODEL 7
REMARK VINA RESULT:      -7.3      1.961      2.598
REMARK  Name = 
REMARK  6 active torsions:
REMARK  status: ('A' for Active; 'I' for Inactive)
REMARK    1  A    between atoms: C_2  and  O_3
REMARK    2  A    between atoms: O_3  and  C_4
REMARK    3  A    between atoms: N_6  and  C_7
REMARK    4  A    between atoms: C_10  and  N_11
REMARK    5  A    between atoms: N_11  and  C_12
REMARK    6  A    between atoms: C_12  and  C_13
REMARK                            x       y       z     vdW  Elec       q    Type
REMARK                         _______ _______ _______ _____ _____    ______ ____
ROOT
ATOM      1  C   UNL     1       0.518   5.483  -4.945  0.00  0.00    +0.093 A 
ATOM      2  C   UNL     1      -0.278   5.586  -6.079  0.00  0.00    +0.106 A 
ATOM      3  N   UNL     1      -1.637   5.966  -5.842  0.00  0.00    -0.127 NA
ATOM      4  C   UNL     1       0.253   5.508  -7.360  0.00  0.00    +0.035 A 
ATOM      5  C   UNL     1       1.586   5.151  -7.533  0.00  0.00    +0.067 A 
ATOM      6  C   UNL     1       2.279   4.707  -6.413  0.00  0.00    +0.018 A 
ATOM      7  C   UNL     1       1.751   4.873  -5.139  0.00  0.00    +0.019 A 
ENDROOT
BRANCH   1   9
ATOM      8  C   UNL     1      -0.256   5.974  -2.624  0.00  0.00    +0.425 C 
ATOM      9  N   UNL     1       0.369   6.391  -3.845  0.00  0.00    -0.141 NA
ATOM     10  O   UNL     1      -0.135   4.759  -2.336  0.00  0.00    -0.224 OA
BRANCH   8  11
ATOM     11  O   UNL     1      -1.198   6.726  -1.960  0.00  0.00    -0.433 OA
BRANCH  11  13
ATOM     12  C   UNL     1      -3.435   6.334  -2.648  0.00  0.00    +0.051 C 
ATOM     13  C   UNL     1      -2.305   7.351  -2.599  0.00  0.00    +0.210 C 
ENDBRANCH  11  13
ENDBRANCH   8  11
ENDBRANCH   1   9
BRANCH   5  14
ATOM     14  N   UNL     1       2.249   5.359  -8.763  0.00  0.00    -0.233 NA
BRANCH  14  15
ATOM     15  C   UNL     1       2.956   6.563  -9.112  0.00  0.00    +0.139 C 
BRANCH  15  16
ATOM     16  C   UNL     1       4.268   6.249  -9.709  0.00  0.00    -0.001 A 
ATOM     17  C   UNL     1       4.689   7.034 -10.773  0.00  0.00    -0.000 A 
ATOM     18  C   UNL     1       6.048   7.112 -11.050  0.00  0.00    +0.029 A 
ATOM     19  C   UNL     1       6.997   6.645 -10.147  0.00  0.00    +0.140 A 
ATOM     20  F   UNL     1       8.126   7.371  -9.896  0.00  0.00    -0.204 F 
ATOM     21  C   UNL     1       6.542   5.676  -9.261  0.00  0.00    +0.029 A 
ATOM     22  C   UNL     1       5.186   5.386  -9.175  0.00  0.00    -0.000 A 
ENDBRANCH  15  16
ENDBRANCH  14  15
ENDBRANCH   5  14
TORSDOF 6
ENDMDL
MODEL 8
REMARK VINA RESULT:      -7.3      4.309      8.505
REMARK  Name = 
REMARK  6 active torsions:
REMARK  status: ('A' for Active; 'I' for Inactive)
REMARK    1  A    between atoms: C_2  and  O_3
REMARK    2  A    between atoms: O_3  and  C_4
REMARK    3  A    between atoms: N_6  and  C_7
REMARK    4  A    between atoms: C_10  and  N_11
REMARK    5  A    between atoms: N_11  and  C_12
REMARK    6  A    between atoms: C_12  and  C_13
REMARK                            x       y       z     vdW  Elec       q    Type
REMARK                         _______ _______ _______ _____ _____    ______ ____
ROOT
ATOM      1  C   UNL     1       3.334   6.300 -10.057  0.00  0.00    +0.093 A 
ATOM      2  C   UNL     1       2.192   6.022 -10.797  0.00  0.00    +0.106 A 
ATOM      3  N   UNL     1       2.414   5.736 -12.182  0.00  0.00    -0.127 NA
ATOM      4  C   UNL     1       0.950   5.853 -10.199  0.00  0.00    +0.035 A 
ATOM      5  C   UNL     1       0.794   6.129  -8.845  0.00  0.00    +0.067 A 
ATOM      6  C   UNL     1       1.856   6.743  -8.192  0.00  0.00    +0.018 A 
ATOM      7  C   UNL     1       3.107   6.825  -8.790  0.00  0.00    +0.019 A 
ENDROOT
BRANCH   1   9
ATOM      8  C   UNL     1       5.639   6.241 -11.009  0.00  0.00    +0.425 C 
ATOM      9  N   UNL     1       4.566   5.608 -10.300  0.00  0.00    -0.141 NA
ATOM     10  O   UNL     1       5.710   7.488 -10.895  0.00  0.00    -0.224 OA
BRANCH   8  11
ATOM     11  O   UNL     1       6.356   5.622 -12.009  0.00  0.00    -0.433 OA
BRANCH  11  13
ATOM     12  C   UNL     1       8.654   5.863 -12.551  0.00  0.00    +0.051 C 
ATOM     13  C   UNL     1       7.239   6.308 -12.889  0.00  0.00    +0.210 C 
ENDBRANCH  11  13
ENDBRANCH   8  11
ENDBRANCH   1   9
BRANCH   5  14
ATOM     14  N   UNL     1      -0.340   5.683  -8.129  0.00  0.00    -0.233 NA
BRANCH  14  15
ATOM     15  C   UNL     1      -0.284   4.951  -6.892  0.00  0.00    +0.139 C 
BRANCH  15  16
ATOM     16  C   UNL     1      -1.071   5.626  -5.844  0.00  0.00    -0.001 A 
ATOM     17  C   UNL     1      -0.400   6.019  -4.695  0.00  0.00    -0.000 A 
ATOM     18  C   UNL     1      -0.937   7.041  -3.922  0.00  0.00    +0.029 A 
ATOM     19  C   UNL     1      -1.969   7.841  -4.400  0.00  0.00    +0.140 A 
ATOM     20  F   UNL     1      -1.944   9.191  -4.199  0.00  0.00    -0.204 F 
ATOM     21  C   UNL     1      -2.747   7.268  -5.398  0.00  0.00    +0.029 A 
ATOM     22  C   UNL     1      -2.355   6.076  -5.995  0.00  0.00    -0.000 A 
ENDBRANCH  15  16
ENDBRANCH  14  15
ENDBRANCH   5  14
TORSDOF 6
ENDMDL
MODEL 9
REMARK VINA RESULT:      -7.3      3.321      6.563
REMARK  Name = 
REMARK  6 active torsions:
REMARK  status: ('A' for Active; 'I' for Inactive)
REMARK    1  A    between atoms: C_2  and  O_3
REMARK    2  A    between atoms: O_3  and  C_4
REMARK    3  A    between atoms: N_6  and  C_7
REMARK    4  A    between atoms: C_10  and  N_11
REMARK    5  A    between atoms: N_11  and  C_12
REMARK    6  A    between atoms: C_12  and  C_13
REMARK                            x       y       z     vdW  Elec       q    Type
REMARK                         _______ _______ _______ _____ _____    ______ ____
ROOT
ATOM      1  C   UNL     1       1.948   6.413  -9.753  0.00  0.00    +0.093 A 
ATOM      2  C   UNL     1       0.767   5.730  -9.495  0.00  0.00    +0.106 A 
ATOM      3  N   UNL     1       0.173   5.083 -10.625  0.00  0.00    -0.127 NA
ATOM      4  C   UNL     1       0.298   5.532  -8.202  0.00  0.00    +0.035 A 
ATOM      5  C   UNL     1       0.923   6.171  -7.138  0.00  0.00    +0.067 A 
ATOM      6  C   UNL     1       1.882   7.130  -7.442  0.00  0.00    +0.018 A 
ATOM      7  C   UNL     1       2.386   7.246  -8.731  0.00  0.00    +0.019 A 
ENDROOT
BRANCH   1   9
ATOM      8  C   UNL     1       4.008   5.096 -10.246  0.00  0.00    +0.425 C 
ATOM      9  N   UNL     1       2.913   5.909 -10.686  0.00  0.00    -0.141 NA
ATOM     10  O   UNL     1       3.796   4.397  -9.226  0.00  0.00    -0.224 OA
BRANCH   8  11
ATOM     11  O   UNL     1       5.305   5.278 -10.670  0.00  0.00    -0.433 OA
BRANCH  11  13
ATOM     12  C   UNL     1       7.266   5.770  -9.427  0.00  0.00    +0.051 C 
ATOM     13  C   UNL     1       6.130   6.358 -10.249  0.00  0.00    +0.210 C 
ENDBRANCH  11  13
ENDBRANCH   8  11
ENDBRANCH   1   9
BRANCH   5  14
ATOM     14  N   UNL     1       0.695   5.769  -5.802  0.00  0.00    -0.233 NA
BRANCH  14  15
ATOM     15  C   UNL     1       1.487   4.794  -5.100  0.00  0.00    +0.139 C 
BRANCH  15  16
ATOM     16  C   UNL     1       2.578   5.443  -4.350  0.00  0.00    -0.001 A 
ATOM     17  C   UNL     1       3.879   5.141  -4.726  0.00  0.00    -0.000 A 
ATOM     18  C   UNL     1       4.892   6.038  -4.412  0.00  0.00    +0.029 A 
ATOM     19  C   UNL     1       4.605   7.326  -3.973  0.00  0.00    +0.140 A 
ATOM     20  F   UNL     1       5.312   8.391  -4.453  0.00  0.00    -0.204 F 
ATOM     21  C   UNL     1       3.355   7.486  -3.388  0.00  0.00    +0.029 A 
ATOM     22  C   UNL     1       2.414   6.466  -3.455  0.00  0.00    -0.000 A 
ENDBRANCH  15  16
ENDBRANCH  14  15
ENDBRANCH   5  14
TORSDOF 6
ENDMDL
