MODEL 1
REMARK VINA RESULT:      -9.6      0.000      0.000
REMARK  Name = 
REMARK  4 active torsions:
REMARK  status: ('A' for Active; 'I' for Inactive)
REMARK    1  A    between atoms: N_12  and  C_13
REMARK    2  A    between atoms: C_13  and  C_14
REMARK    3  A    between atoms: C_19  and  C_20
REMARK    4  A    between atoms: C_20  and  N_21
REMARK                            x       y       z     vdW  Elec       q    Type
REMARK                         _______ _______ _______ _____ _____    ______ ____
ROOT
ATOM      1  C   UNL     1       4.924   5.408  -8.695  0.00  0.00    +0.022 C 
ATOM      2  C   UNL     1       3.890   6.536  -7.934  0.00  0.00    +0.018 C 
ATOM      3  C   UNL     1       2.559   6.333  -8.835  0.00  0.00    +0.001 C 
ATOM      4  C   UNL     1       1.921   5.041  -8.615  0.00  0.00    +0.000 C 
ATOM      5  C   UNL     1       2.849   3.931  -8.933  0.00  0.00    +0.000 C 
ATOM      6  C   UNL     1       4.152   4.040  -8.323  0.00  0.00    +0.002 C 
ENDROOT
BRANCH   1   7
ATOM      7  C   UNL     1       4.263   5.573 -10.163  0.00  0.00    +0.101 C 
BRANCH   7  10
ATOM      8  O   UNL     1       5.341   4.800 -12.595  0.00  0.00    -0.274 OA
ATOM      9  C   UNL     1       5.432   5.394 -12.342  0.00  0.00    +0.231 C 
ATOM     10  N   UNL     1       5.321   5.952 -11.074  0.00  0.00    -0.230 N 
ATOM     11  C   UNL     1       5.510   7.279 -11.367  0.00  0.00    +0.231 C 
ATOM     12  O   UNL     1       5.135   8.383 -10.871  0.00  0.00    -0.274 OA
ATOM     13  C   UNL     1       6.916   7.401 -12.124  0.00  0.00    +0.086 C 
ATOM     14  C   UNL     1       7.508   5.851 -11.634  0.00  0.00    +0.009 C 
ATOM     15  C   UNL     1       9.003   6.060 -12.190  0.00  0.00    +0.001 C 
ATOM     16  C   UNL     1       7.620   6.057 -11.556  0.00  0.00    +0.009 C 
ATOM     17  C   UNL     1       7.655   4.567 -10.938  0.00  0.00    +0.001 C 
ATOM     18  C   UNL     1       7.781   5.891 -10.067  0.00  0.00    +0.001 C 
ATOM     19  C   UNL     1       6.747   5.977 -13.064  0.00  0.00    +0.086 C 
ENDBRANCH   7  10
ENDBRANCH   1   7
BRANCH   2  20
ATOM     20  C   UNL     1       3.339   5.576  -6.768  0.00  0.00    +0.072 C 
BRANCH  20  21
ATOM     21  N   UNL     1       3.954   5.727  -5.549  0.00  0.00    -0.270 NA
ATOM     22  C   UNL     1       3.915   6.990  -4.887  0.00  0.00    +0.094 C 
ATOM     23  C   UNL     1       2.580   7.114  -4.163  0.00  0.00    +0.110 C 
ATOM     24  N   UNL     1       1.534   6.527  -5.002  0.00  0.00    -0.290 N 
ATOM     25  C   UNL     1       0.196   6.919  -4.646  0.00  0.00    +0.140 A 
ATOM     26  C   UNL     1      -0.428   6.598  -3.450  0.00  0.00    +0.040 A 
ATOM     27  C   UNL     1      -1.802   6.626  -3.575  0.00  0.00    +0.050 A 
ATOM     28  C   UNL     1      -2.667   5.962  -2.725  0.00  0.00    +0.008 A 
ATOM     29  C   UNL     1      -2.137   5.343  -1.600  0.00  0.00    +0.001 A 
ATOM     30  C   UNL     1      -0.757   5.369  -1.434  0.00  0.00    +0.000 A 
ATOM     31  S   UNL     1      -1.998   7.798  -4.811  0.00  0.00    +0.014 S 
ATOM     32  C   UNL     1       0.070   5.731  -2.479  0.00  0.00    +0.003 A 
ATOM     33  N   UNL     1      -0.364   8.017  -5.210  0.00  0.00    -0.194 NA
ATOM     34  C   UNL     1       1.708   5.080  -5.154  0.00  0.00    +0.110 C 
ATOM     35  C   UNL     1       3.149   4.815  -4.717  0.00  0.00    +0.094 C 
ENDBRANCH  20  21
ENDBRANCH   2  20
TORSDOF 4
ENDMDL
MODEL 2
REMARK VINA RESULT:      -9.4      3.523      5.039
REMARK  Name = 
REMARK  4 active torsions:
REMARK  status: ('A' for Active; 'I' for Inactive)
REMARK    1  A    between atoms: N_12  and  C_13
REMARK    2  A    between atoms: C_13  and  C_14
REMARK    3  A    between atoms: C_19  and  C_20
REMARK    4  A    between atoms: C_20  and  N_21
REMARK                            x       y       z     vdW  Elec       q    Type
REMARK                         _______ _______ _______ _____ _____    ______ ____
ROOT
ATOM      1  C   UNL     1       2.535   5.909  -5.424  0.00  0.00    +0.022 C 
ATOM      2  C   UNL     1       3.366   4.754  -4.479  0.00  0.00    +0.018 C 
ATOM      3  C   UNL     1       4.893   5.187  -4.803  0.00  0.00    +0.001 C 
ATOM      4  C   UNL     1       5.251   6.472  -4.215  0.00  0.00    +0.000 C 
ATOM      5  C   UNL     1       4.366   7.548  -4.716  0.00  0.00    +0.000 C 
ATOM      6  C   UNL     1       2.955   7.255  -4.639  0.00  0.00    +0.002 C 
ENDROOT
BRANCH   1   7
ATOM      7  C   UNL     1       3.683   6.019  -6.560  0.00  0.00    +0.101 C 
BRANCH   7  10
ATOM      8  O   UNL     1       2.282   4.279  -8.199  0.00  0.00    -0.274 OA
ATOM      9  C   UNL     1       2.243   4.928  -8.258  0.00  0.00    +0.231 C 
ATOM     10  N   UNL     1       3.022   6.002  -7.847  0.00  0.00    -0.230 N 
ATOM     11  C   UNL     1       2.207   7.050  -8.196  0.00  0.00    +0.231 C 
ATOM     12  O   UNL     1       2.010   8.229  -7.775  0.00  0.00    -0.274 OA
ATOM     13  C   UNL     1       1.890   6.903  -9.758  0.00  0.00    +0.086 C 
ATOM     14  C   UNL     1       3.184   5.805 -10.092  0.00  0.00    +0.009 C 
ATOM     15  C   UNL     1       3.019   5.833 -11.693  0.00  0.00    +0.001 C 
ATOM     16  C   UNL     1       3.184   6.030 -10.192  0.00  0.00    +0.009 C 
ATOM     17  C   UNL     1       4.408   5.006  -9.961  0.00  0.00    +0.001 C 
ATOM     18  C   UNL     1       4.560   6.589  -9.936  0.00  0.00    +0.001 C 
ATOM     19  C   UNL     1       1.715   5.197  -9.754  0.00  0.00    +0.086 C 
ENDBRANCH   7  10
ENDBRANCH   1   7
BRANCH   2  20
ATOM     20  C   UNL     1       3.352   5.560  -3.087  0.00  0.00    +0.072 C 
BRANCH  20  21
ATOM     21  N   UNL     1       3.487   4.784  -1.962  0.00  0.00    -0.270 NA
ATOM     22  C   UNL     1       4.485   5.103  -0.995  0.00  0.00    +0.094 C 
ATOM     23  C   UNL     1       3.947   6.210  -0.095  0.00  0.00    +0.110 C 
ATOM     24  N   UNL     1       3.181   7.150  -0.914  0.00  0.00    -0.290 N 
ATOM     25  C   UNL     1       2.956   8.430  -0.296  0.00  0.00    +0.140 A 
ATOM     26  C   UNL     1       2.195   8.632   0.845  0.00  0.00    +0.040 A 
ATOM     27  C   UNL     1       1.721   9.927   0.913  0.00  0.00    +0.050 A 
ATOM     28  C   UNL     1       0.626  10.307   1.666  0.00  0.00    +0.008 A 
ATOM     29  C   UNL     1       0.051   9.367   2.512  0.00  0.00    +0.001 A 
ATOM     30  C   UNL     1       0.568   8.077   2.497  0.00  0.00    +0.000 A 
ATOM     31  S   UNL     1       2.946  10.772   0.063  0.00  0.00    +0.014 S 
ATOM     32  C   UNL     1       1.413   7.671   1.483  0.00  0.00    +0.003 A 
ATOM     33  N   UNL     1       3.844   9.438  -0.476  0.00  0.00    -0.194 NA
ATOM     34  C   UNL     1       1.969   6.534  -1.460  0.00  0.00    +0.110 C 
ATOM     35  C   UNL     1       2.194   5.029  -1.299  0.00  0.00    +0.094 C 
ENDBRANCH  20  21
ENDBRANCH   2  20
TORSDOF 4
ENDMDL
MODEL 3
REMARK VINA RESULT:      -8.8      3.456      5.343
REMARK  Name = 
REMARK  4 active torsions:
REMARK  status: ('A' for Active; 'I' for Inactive)
REMARK    1  A    between atoms: N_12  and  C_13
REMARK    2  A    between atoms: C_13  and  C_14
REMARK    3  A    between atoms: C_19  and  C_20
REMARK    4  A    between atoms: C_20  and  N_21
REMARK                            x       y       z     vdW  Elec       q    Type
REMARK                         _______ _______ _______ _____ _____    ______ ____
ROOT
ATOM      1  C   UNL     1       2.810   5.907  -5.427  0.00  0.00    +0.022 C 
ATOM      2  C   UNL     1       3.610   4.789  -4.412  0.00  0.00    +0.018 C 
ATOM      3  C   UNL     1       5.134   5.317  -4.580  0.00  0.00    +0.001 C 
ATOM      4  C   UNL     1       5.355   6.612  -3.949  0.00  0.00    +0.000 C 
ATOM      5  C   UNL     1       4.460   7.641  -4.527  0.00  0.00    +0.000 C 
ATOM      6  C   UNL     1       3.069   7.264  -4.593  0.00  0.00    +0.002 C 
ENDROOT
BRANCH   1   7
ATOM      7  C   UNL     1       4.056   6.100  -6.442  0.00  0.00    +0.101 C 
BRANCH   7  10
ATOM      8  O   UNL     1       2.390   7.592  -8.077  0.00  0.00    -0.274 OA
ATOM      9  C   UNL     1       2.824   7.165  -8.312  0.00  0.00    +0.231 C 
ATOM     10  N   UNL     1       3.525   6.085  -7.787  0.00  0.00    -0.230 N 
ATOM     11  C   UNL     1       4.363   5.799  -8.836  0.00  0.00    +0.231 C 
ATOM     12  O   UNL     1       5.518   5.294  -8.966  0.00  0.00    -0.274 OA
ATOM     13  C   UNL     1       3.443   5.548 -10.122  0.00  0.00    +0.086 C 
ATOM     14  C   UNL     1       1.975   5.309  -9.238  0.00  0.00    +0.009 C 
ATOM     15  C   UNL     1       1.097   4.828 -10.497  0.00  0.00    +0.001 C 
ATOM     16  C   UNL     1       2.073   5.124  -9.368  0.00  0.00    +0.009 C 
ATOM     17  C   UNL     1       1.024   5.084  -8.143  0.00  0.00    +0.001 C 
ATOM     18  C   UNL     1       2.091   3.941  -8.434  0.00  0.00    +0.001 C 
ATOM     19  C   UNL     1       2.317   6.798  -9.795  0.00  0.00    +0.086 C 
ENDBRANCH   7  10
ENDBRANCH   1   7
BRANCH   2  20
ATOM     20  C   UNL     1       3.411   5.575  -3.023  0.00  0.00    +0.072 C 
BRANCH  20  21
ATOM     21  N   UNL     1       3.506   4.797  -1.895  0.00  0.00    -0.270 NA
ATOM     22  C   UNL     1       4.471   5.113  -0.894  0.00  0.00    +0.094 C 
ATOM     23  C   UNL     1       3.905   6.219  -0.011  0.00  0.00    +0.110 C 
ATOM     24  N   UNL     1       3.169   7.163  -0.855  0.00  0.00    -0.290 N 
ATOM     25  C   UNL     1       2.925   8.442  -0.243  0.00  0.00    +0.140 A 
ATOM     26  C   UNL     1       2.127   8.645   0.872  0.00  0.00    +0.040 A 
ATOM     27  C   UNL     1       1.653   9.940   0.925  0.00  0.00    +0.050 A 
ATOM     28  C   UNL     1       0.534  10.322   1.641  0.00  0.00    +0.008 A 
ATOM     29  C   UNL     1      -0.072   9.382   2.465  0.00  0.00    +0.001 A 
ATOM     30  C   UNL     1       0.443   8.091   2.466  0.00  0.00    +0.000 A 
ATOM     31  S   UNL     1       2.908  10.784   0.118  0.00  0.00    +0.014 S 
ATOM     32  C   UNL     1       1.322   7.684   1.481  0.00  0.00    +0.003 A 
ATOM     33  N   UNL     1       3.821   9.449  -0.391  0.00  0.00    -0.194 NA
ATOM     34  C   UNL     1       1.975   6.549  -1.442  0.00  0.00    +0.110 C 
ATOM     35  C   UNL     1       2.191   5.044  -1.276  0.00  0.00    +0.094 C 
ENDBRANCH  20  21
ENDBRANCH   2  20
TORSDOF 4
ENDMDL
MODEL 4
REMARK VINA RESULT:      -8.7      3.430      5.767
REMARK  Name = 
REMARK  4 active torsions:
REMARK  status: ('A' for Active; 'I' for Inactive)
REMARK    1  A    between atoms: N_12  and  C_13
REMARK    2  A    between atoms: C_13  and  C_14
REMARK    3  A    between atoms: C_19  and  C_20
REMARK    4  A    between atoms: C_20  and  N_21
REMARK                            x       y       z     vdW  Elec       q    Type
REMARK                         _______ _______ _______ _____ _____    ______ ____
ROOT
ATOM      1  C   UNL     1       0.059   5.566  -5.398  0.00  0.00    +0.022 C 
ATOM      2  C   UNL     1       0.246   6.744  -4.175  0.00  0.00    +0.018 C 
ATOM      3  C   UNL     1      -0.610   7.953  -4.833  0.00  0.00    +0.001 C 
ATOM      4  C   UNL     1      -2.041   7.678  -4.865  0.00  0.00    +0.000 C 
ATOM      5  C   UNL     1      -2.327   6.453  -5.646  0.00  0.00    +0.000 C 
ATOM      6  C   UNL     1      -1.530   5.305  -5.284  0.00  0.00    +0.002 C 
ENDROOT
BRANCH   1   7
ATOM      7  C   UNL     1      -0.038   6.631  -6.613  0.00  0.00    +0.101 C 
BRANCH   7  10
ATOM      8  O   UNL     1       0.249   5.114  -8.914  0.00  0.00    -0.274 OA
ATOM      9  C   UNL     1       0.661   5.594  -8.754  0.00  0.00    +0.231 C 
ATOM     10  N   UNL     1       0.974   6.275  -7.583  0.00  0.00    -0.230 N 
ATOM     11  C   UNL     1       1.804   7.251  -8.076  0.00  0.00    +0.231 C 
ATOM     12  O   UNL     1       2.110   8.436  -7.747  0.00  0.00    -0.274 OA
ATOM     13  C   UNL     1       2.989   6.513  -8.859  0.00  0.00    +0.086 C 
ATOM     14  C   UNL     1       2.722   4.959  -8.148  0.00  0.00    +0.009 C 
ATOM     15  C   UNL     1       4.047   4.271  -8.747  0.00  0.00    +0.001 C 
ATOM     16  C   UNL     1       2.932   5.081  -8.103  0.00  0.00    +0.009 C 
ATOM     17  C   UNL     1       2.237   3.889  -7.268  0.00  0.00    +0.001 C 
ATOM     18  C   UNL     1       3.116   5.037  -6.608  0.00  0.00    +0.001 C 
ATOM     19  C   UNL     1       2.015   5.296  -9.572  0.00  0.00    +0.086 C 
ENDBRANCH   7  10
ENDBRANCH   1   7
BRANCH   2  20
ATOM     20  C   UNL     1      -0.979   6.284  -3.240  0.00  0.00    +0.072 C 
BRANCH  20  21
ATOM     21  N   UNL     1      -0.744   5.165  -2.480  0.00  0.00    -0.270 NA
ATOM     22  C   UNL     1       0.352   5.145  -1.567  0.00  0.00    +0.094 C 
ATOM     23  C   UNL     1      -0.076   5.853  -0.286  0.00  0.00    +0.110 C 
ATOM     24  N   UNL     1      -0.906   7.005  -0.641  0.00  0.00    -0.290 N 
ATOM     25  C   UNL     1      -1.047   7.981   0.407  0.00  0.00    +0.140 A 
ATOM     26  C   UNL     1      -1.686   7.753   1.616  0.00  0.00    +0.040 A 
ATOM     27  C   UNL     1      -2.131   8.930   2.182  0.00  0.00    +0.050 A 
ATOM     28  C   UNL     1      -3.137   8.999   3.126  0.00  0.00    +0.008 A 
ATOM     29  C   UNL     1      -3.639   7.809   3.640  0.00  0.00    +0.001 A 
ATOM     30  C   UNL     1      -3.146   6.618   3.121  0.00  0.00    +0.000 A 
ATOM     31  S   UNL     1      -0.984  10.046   1.566  0.00  0.00    +0.014 S 
ATOM     32  C   UNL     1      -2.414   6.612   1.950  0.00  0.00    +0.003 A 
ATOM     33  N   UNL     1      -0.167   9.006   0.506  0.00  0.00    -0.194 NA
ATOM     34  C   UNL     1      -2.176   6.594  -1.245  0.00  0.00    +0.110 C 
ATOM     35  C   UNL     1      -1.959   5.135  -1.647  0.00  0.00    +0.094 C 
ENDBRANCH  20  21
ENDBRANCH   2  20
TORSDOF 4
ENDMDL
MODEL 5
REMARK VINA RESULT:      -8.6      3.066      5.249
REMARK  Name = 
REMARK  4 active torsions:
REMARK  status: ('A' for Active; 'I' for Inactive)
REMARK    1  A    between atoms: N_12  and  C_13
REMARK    2  A    between atoms: C_13  and  C_14
REMARK    3  A    between atoms: C_19  and  C_20
REMARK    4  A    between atoms: C_20  and  N_21
REMARK                            x       y       z     vdW  Elec       q    Type
REMARK                         _______ _______ _______ _____ _____    ______ ____
ROOT
ATOM      1  C   UNL     1       0.125   6.566  -6.399  0.00  0.00    +0.022 C 
ATOM      2  C   UNL     1      -0.671   5.340  -5.515  0.00  0.00    +0.018 C 
ATOM      3  C   UNL     1       0.603   4.680  -4.762  0.00  0.00    +0.001 C 
ATOM      4  C   UNL     1       1.174   5.556  -3.747  0.00  0.00    +0.000 C 
ATOM      5  C   UNL     1       1.621   6.836  -4.343  0.00  0.00    +0.000 C 
ATOM      6  C   UNL     1       0.643   7.487  -5.180  0.00  0.00    +0.002 C 
ENDROOT
BRANCH   1   7
ATOM      7  C   UNL     1       1.506   5.742  -6.578  0.00  0.00    +0.101 C 
BRANCH   7  10
ATOM      8  O   UNL     1       0.943   4.805  -9.124  0.00  0.00    -0.274 OA
ATOM      9  C   UNL     1       1.254   5.369  -9.017  0.00  0.00    +0.231 C 
ATOM     10  N   UNL     1       1.944   5.923  -7.945  0.00  0.00    -0.230 N 
ATOM     11  C   UNL     1       2.160   7.194  -8.417  0.00  0.00    +0.231 C 
ATOM     12  O   UNL     1       2.304   8.343  -7.904  0.00  0.00    -0.274 OA
ATOM     13  C   UNL     1       2.926   7.054  -9.817  0.00  0.00    +0.086 C 
ATOM     14  C   UNL     1       3.423   5.415  -9.577  0.00  0.00    +0.009 C 
ATOM     15  C   UNL     1       4.386   5.342 -10.864  0.00  0.00    +0.001 C 
ATOM     16  C   UNL     1       3.591   5.595  -9.591  0.00  0.00    +0.009 C 
ATOM     17  C   UNL     1       3.710   4.119  -8.951  0.00  0.00    +0.001 C 
ATOM     18  C   UNL     1       4.507   5.385  -8.412  0.00  0.00    +0.001 C 
ATOM     19  C   UNL     1       2.040   5.699 -10.382  0.00  0.00    +0.086 C 
ENDBRANCH   7  10
ENDBRANCH   1   7
BRANCH   2  20
ATOM     20  C   UNL     1      -1.070   6.221  -4.230  0.00  0.00    +0.072 C 
BRANCH  20  21
ATOM     21  N   UNL     1      -2.260   5.879  -3.635  0.00  0.00    -0.270 NA
ATOM     22  C   UNL     1      -2.273   4.934  -2.567  0.00  0.00    +0.094 C 
ATOM     23  C   UNL     1      -1.906   5.660  -1.278  0.00  0.00    +0.110 C 
ATOM     24  N   UNL     1      -0.860   6.642  -1.573  0.00  0.00    -0.290 N 
ATOM     25  C   UNL     1      -0.141   7.110  -0.418  0.00  0.00    +0.140 A 
ATOM     26  C   UNL     1      -0.700   7.850   0.613  0.00  0.00    +0.040 A 
ATOM     27  C   UNL     1       0.256   8.587   1.281  0.00  0.00    +0.050 A 
ATOM     28  C   UNL     1      -0.026   9.707   2.040  0.00  0.00    +0.008 A 
ATOM     29  C   UNL     1      -1.358  10.034   2.260  0.00  0.00    +0.001 A 
ATOM     30  C   UNL     1      -2.329   9.255   1.642  0.00  0.00    +0.000 A 
ATOM     31  S   UNL     1       1.644   7.606   1.059  0.00  0.00    +0.014 S 
ATOM     32  C   UNL     1      -1.988   8.383   0.627  0.00  0.00    +0.003 A 
ATOM     33  N   UNL     1       0.978   6.466  -0.005  0.00  0.00    -0.194 NA
ATOM     34  C   UNL     1      -1.352   7.714  -2.441  0.00  0.00    +0.110 C 
ATOM     35  C   UNL     1      -2.650   7.167  -3.036  0.00  0.00    +0.094 C 
ENDBRANCH  20  21
ENDBRANCH   2  20
TORSDOF 4
ENDMDL
MODEL 6
REMARK VINA RESULT:      -8.4      2.609      4.453
REMARK  Name = 
REMARK  4 active torsions:
REMARK  status: ('A' for Active; 'I' for Inactive)
REMARK    1  A    between atoms: N_12  and  C_13
REMARK    2  A    between atoms: C_13  and  C_14
REMARK    3  A    between atoms: C_19  and  C_20
REMARK    4  A    between atoms: C_20  and  N_21
REMARK                            x       y       z     vdW  Elec       q    Type
REMARK                         _______ _______ _______ _____ _____    ______ ____
ROOT
ATOM      1  C   UNL     1       0.332   6.037  -8.055  0.00  0.00    +0.022 C 
ATOM      2  C   UNL     1      -0.871   5.139  -7.241  0.00  0.00    +0.018 C 
ATOM      3  C   UNL     1       0.072   4.123  -6.402  0.00  0.00    +0.001 C 
ATOM      4  C   UNL     1       0.815   4.791  -5.340  0.00  0.00    +0.000 C 
ATOM      5  C   UNL     1       1.686   5.854  -5.893  0.00  0.00    +0.000 C 
ATOM      6  C   UNL     1       1.026   6.768  -6.794  0.00  0.00    +0.002 C 
ENDROOT
BRANCH   1   7
ATOM      7  C   UNL     1       1.393   4.817  -8.139  0.00  0.00    +0.101 C 
BRANCH   7  10
ATOM      8  O   UNL     1       3.887   4.028  -9.051  0.00  0.00    -0.274 OA
ATOM      9  C   UNL     1       3.461   4.352  -9.425  0.00  0.00    +0.231 C 
ATOM     10  N   UNL     1       2.339   5.136  -9.185  0.00  0.00    -0.230 N 
ATOM     11  C   UNL     1       1.884   5.320 -10.467  0.00  0.00    +0.231 C 
ATOM     12  O   UNL     1       0.758   5.516 -11.014  0.00  0.00    -0.274 OA
ATOM     13  C   UNL     1       3.086   5.960 -11.309  0.00  0.00    +0.086 C 
ATOM     14  C   UNL     1       4.007   6.465  -9.934  0.00  0.00    +0.009 C 
ATOM     15  C   UNL     1       5.096   7.311 -10.763  0.00  0.00    +0.001 C 
ATOM     16  C   UNL     1       3.913   6.632 -10.088  0.00  0.00    +0.009 C 
ATOM     17  C   UNL     1       4.398   6.795  -8.559  0.00  0.00    +0.001 C 
ATOM     18  C   UNL     1       3.223   7.644  -9.210  0.00  0.00    +0.001 C 
ATOM     19  C   UNL     1       4.333   5.019 -10.602  0.00  0.00    +0.086 C 
ENDBRANCH   7  10
ENDBRANCH   1   7
BRANCH   2  20
ATOM     20  C   UNL     1      -1.063   6.122  -5.982  0.00  0.00    +0.072 C 
BRANCH  20  21
ATOM     21  N   UNL     1      -2.348   6.219  -5.508  0.00  0.00    -0.270 NA
ATOM     22  C   UNL     1      -2.864   5.206  -4.646  0.00  0.00    +0.094 C 
ATOM     23  C   UNL     1      -2.383   5.491  -3.228  0.00  0.00    +0.110 C 
ATOM     24  N   UNL     1      -1.004   5.978  -3.288  0.00  0.00    -0.290 N 
ATOM     25  C   UNL     1      -0.293   5.907  -2.039  0.00  0.00    +0.140 A 
ATOM     26  C   UNL     1      -0.618   6.635  -0.905  0.00  0.00    +0.040 A 
ATOM     27  C   UNL     1       0.473   6.783  -0.071  0.00  0.00    +0.050 A 
ATOM     28  C   UNL     1       0.584   7.779   0.881  0.00  0.00    +0.008 A 
ATOM     29  C   UNL     1      -0.517   8.594   1.113  0.00  0.00    +0.001 A 
ATOM     30  C   UNL     1      -1.643   8.404   0.321  0.00  0.00    +0.000 A 
ATOM     31  S   UNL     1       1.359   5.361  -0.431  0.00  0.00    +0.014 S 
ATOM     32  C   UNL     1      -1.572   7.648  -0.833  0.00  0.00    +0.003 A 
ATOM     33  N   UNL     1       0.414   4.795  -1.720  0.00  0.00    -0.194 NA
ATOM     34  C   UNL     1      -0.917   7.283  -3.947  0.00  0.00    +0.110 C 
ATOM     35  C   UNL     1      -2.249   7.435  -4.683  0.00  0.00    +0.094 C 
ENDBRANCH  20  21
ENDBRANCH   2  20
TORSDOF 4
ENDMDL
MODEL 7
REMARK VINA RESULT:      -8.2      4.706     10.171
REMARK  Name = 
REMARK  4 active torsions:
REMARK  status: ('A' for Active; 'I' for Inactive)
REMARK    1  A    between atoms: N_12  and  C_13
REMARK    2  A    between atoms: C_13  and  C_14
REMARK    3  A    between atoms: C_19  and  C_20
REMARK    4  A    between atoms: C_20  and  N_21
REMARK                            x       y       z     vdW  Elec       q    Type
REMARK                         _______ _______ _______ _____ _____    ______ ____
ROOT
ATOM      1  C   UNL     1       2.881   8.029  -1.123  0.00  0.00    +0.022 C 
ATOM      2  C   UNL     1       4.430   7.440  -1.537  0.00  0.00    +0.018 C 
ATOM      3  C   UNL     1       4.490   6.139  -0.572  0.00  0.00    +0.001 C 
ATOM      4  C   UNL     1       3.572   5.086  -0.988  0.00  0.00    +0.000 C 
ATOM      5  C   UNL     1       2.174   5.574  -0.992  0.00  0.00    +0.000 C 
ATOM      6  C   UNL     1       1.971   6.822  -1.689  0.00  0.00    +0.002 C 
ENDROOT
BRANCH   1   7
ATOM      7  C   UNL     1       2.926   7.496   0.404  0.00  0.00    +0.101 C 
BRANCH   7  10
ATOM      8  O   UNL     1       1.850   7.624   2.955  0.00  0.00    -0.274 OA
ATOM      9  C   UNL     1       1.822   8.122   2.535  0.00  0.00    +0.231 C 
ATOM     10  N   UNL     1       1.954   8.258   1.157  0.00  0.00    -0.230 N 
ATOM     11  C   UNL     1       1.935   9.625   1.038  0.00  0.00    +0.231 C 
ATOM     12  O   UNL     1       2.421  10.475   0.234  0.00  0.00    -0.274 OA
ATOM     13  C   UNL     1       0.581  10.141   1.720  0.00  0.00    +0.086 C 
ATOM     14  C   UNL     1      -0.209   8.602   1.717  0.00  0.00    +0.009 C 
ATOM     15  C   UNL     1      -1.648   9.152   2.182  0.00  0.00    +0.001 C 
ATOM     16  C   UNL     1      -0.298   8.787   1.581  0.00  0.00    +0.009 C 
ATOM     17  C   UNL     1      -0.533   7.198   1.439  0.00  0.00    +0.001 C 
ATOM     18  C   UNL     1      -0.531   8.207   0.210  0.00  0.00    +0.001 C 
ATOM     19  C   UNL     1       0.612   9.054   3.045  0.00  0.00    +0.086 C 
ENDBRANCH   7  10
ENDBRANCH   1   7
BRANCH   2  20
ATOM     20  C   UNL     1       3.997   6.565  -2.816  0.00  0.00    +0.072 C 
BRANCH  20  21
ATOM     21  N   UNL     1       5.033   6.152  -3.617  0.00  0.00    -0.270 NA
ATOM     22  C   UNL     1       5.044   4.822  -4.133  0.00  0.00    +0.094 C 
ATOM     23  C   UNL     1       4.150   4.777  -5.367  0.00  0.00    +0.110 C 
ATOM     24  N   UNL     1       2.977   5.620  -5.128  0.00  0.00    -0.290 N 
ATOM     25  C   UNL     1       1.873   5.367  -6.015  0.00  0.00    +0.140 A 
ATOM     26  C   UNL     1       1.893   5.590  -7.383  0.00  0.00    +0.040 A 
ATOM     27  C   UNL     1       0.619   5.770  -7.884  0.00  0.00    +0.050 A 
ATOM     28  C   UNL     1       0.344   6.412  -9.076  0.00  0.00    +0.008 A 
ATOM     29  C   UNL     1       1.410   6.779  -9.887  0.00  0.00    +0.001 A 
ATOM     30  C   UNL     1       2.696   6.540  -9.417  0.00  0.00    +0.000 A 
ATOM     31  S   UNL     1      -0.303   4.831  -6.785  0.00  0.00    +0.014 S 
ATOM     32  C   UNL     1       2.912   6.227  -8.089  0.00  0.00    +0.003 A 
ATOM     33  N   UNL     1       0.929   4.452  -5.683  0.00  0.00    -0.194 NA
ATOM     34  C   UNL     1       3.338   7.035  -5.019  0.00  0.00    +0.110 C 
ATOM     35  C   UNL     1       4.849   7.033  -4.784  0.00  0.00    +0.094 C 
ENDBRANCH  20  21
ENDBRANCH   2  20
TORSDOF 4
ENDMDL
MODEL 8
REMARK VINA RESULT:      -8.1      5.249     10.037
REMARK  Name = 
REMARK  4 active torsions:
REMARK  status: ('A' for Active; 'I' for Inactive)
REMARK    1  A    between atoms: N_12  and  C_13
REMARK    2  A    between atoms: C_13  and  C_14
REMARK    3  A    between atoms: C_19  and  C_20
REMARK    4  A    between atoms: C_20  and  N_21
REMARK                            x       y       z     vdW  Elec       q    Type
REMARK                         _______ _______ _______ _____ _____    ______ ____
ROOT
ATOM      1  C   UNL     1       2.967   7.992  -1.078  0.00  0.00    +0.022 C 
ATOM      2  C   UNL     1       4.485   7.336  -1.505  0.00  0.00    +0.018 C 
ATOM      3  C   UNL     1       4.448   5.976  -0.624  0.00  0.00    +0.001 C 
ATOM      4  C   UNL     1       3.476   5.009  -1.119  0.00  0.00    +0.000 C 
ATOM      5  C   UNL     1       2.110   5.582  -1.114  0.00  0.00    +0.000 C 
ATOM      6  C   UNL     1       1.997   6.880  -1.733  0.00  0.00    +0.002 C 
ENDROOT
BRANCH   1   7
ATOM      7  C   UNL     1       2.950   7.362   0.413  0.00  0.00    +0.101 C 
BRANCH   7  10
ATOM      8  O   UNL     1       1.088   9.354   0.910  0.00  0.00    -0.274 OA
ATOM      9  C   UNL     1       1.509   9.144   1.362  0.00  0.00    +0.231 C 
ATOM     10  N   UNL     1       2.713   8.448   1.339  0.00  0.00    -0.230 N 
ATOM     11  C   UNL     1       2.905   8.239   2.682  0.00  0.00    +0.231 C 
ATOM     12  O   UNL     1       3.481   7.362   3.392  0.00  0.00    -0.274 OA
ATOM     13  C   UNL     1       2.877   9.673   3.393  0.00  0.00    +0.086 C 
ATOM     14  C   UNL     1       3.122  10.587   1.945  0.00  0.00    +0.009 C 
ATOM     15  C   UNL     1       3.329  12.006   2.675  0.00  0.00    +0.001 C 
ATOM     16  C   UNL     1       3.293  10.588   2.122  0.00  0.00    +0.009 C 
ATOM     17  C   UNL     1       3.431  10.950   0.557  0.00  0.00    +0.001 C 
ATOM     18  C   UNL     1       4.602  10.318   1.426  0.00  0.00    +0.001 C 
ATOM     19  C   UNL     1       1.600  10.324   2.452  0.00  0.00    +0.086 C 
ENDBRANCH   7  10
ENDBRANCH   1   7
BRANCH   2  20
ATOM     20  C   UNL     1       4.025   6.571  -2.843  0.00  0.00    +0.072 C 
BRANCH  20  21
ATOM     21  N   UNL     1       5.049   6.136  -3.647  0.00  0.00    -0.270 NA
ATOM     22  C   UNL     1       5.038   4.801  -4.150  0.00  0.00    +0.094 C 
ATOM     23  C   UNL     1       4.135   4.757  -5.378  0.00  0.00    +0.110 C 
ATOM     24  N   UNL     1       2.975   5.618  -5.139  0.00  0.00    -0.290 N 
ATOM     25  C   UNL     1       1.861   5.372  -6.016  0.00  0.00    +0.140 A 
ATOM     26  C   UNL     1       1.875   5.582  -7.386  0.00  0.00    +0.040 A 
ATOM     27  C   UNL     1       0.600   5.774  -7.880  0.00  0.00    +0.050 A 
ATOM     28  C   UNL     1       0.326   6.410  -9.076  0.00  0.00    +0.008 A 
ATOM     29  C   UNL     1       1.391   6.754  -9.898  0.00  0.00    +0.001 A 
ATOM     30  C   UNL     1       2.677   6.501  -9.434  0.00  0.00    +0.000 A 
ATOM     31  S   UNL     1      -0.327   4.859  -6.765  0.00  0.00    +0.014 S 
ATOM     32  C   UNL     1       2.897   6.197  -8.105  0.00  0.00    +0.003 A 
ATOM     33  N   UNL     1       0.907   4.474  -5.669  0.00  0.00    -0.194 NA
ATOM     34  C   UNL     1       3.357   7.029  -5.046  0.00  0.00    +0.110 C 
ATOM     35  C   UNL     1       4.869   7.008  -4.821  0.00  0.00    +0.094 C 
ENDBRANCH  20  21
ENDBRANCH   2  20
TORSDOF 4
ENDMDL
MODEL 9
REMARK VINA RESULT:      -8.0      3.698      5.209
REMARK  Name = 
REMARK  4 active torsions:
REMARK  status: ('A' for Active; 'I' for Inactive)
REMARK    1  A    between atoms: N_12  and  C_13
REMARK    2  A    between atoms: C_13  and  C_14
REMARK    3  A    between atoms: C_19  and  C_20
REMARK    4  A    between atoms: C_20  and  N_21
REMARK                            x       y       z     vdW  Elec       q    Type
REMARK                         _______ _______ _______ _____ _____    ______ ____
ROOT
ATOM      1  C   UNL     1       1.921   5.111  -5.716  0.00  0.00    +0.022 C 
ATOM      2  C   UNL     1       2.448   6.425  -4.759  0.00  0.00    +0.018 C 
ATOM      3  C   UNL     1       1.149   7.386  -4.883  0.00  0.00    +0.001 C 
ATOM      4  C   UNL     1      -0.012   6.858  -4.176  0.00  0.00    +0.000 C 
ATOM      5  C   UNL     1      -0.390   5.526  -4.702  0.00  0.00    +0.000 C 
ATOM      6  C   UNL     1       0.699   4.584  -4.803  0.00  0.00    +0.002 C 
ENDROOT
BRANCH   1   7
ATOM      7  C   UNL     1       1.009   6.008  -6.706  0.00  0.00    +0.101 C 
BRANCH   7  10
ATOM      8  O   UNL     1       0.826   4.977  -9.271  0.00  0.00    -0.274 OA
ATOM      9  C   UNL     1       1.158   5.521  -9.133  0.00  0.00    +0.231 C 
ATOM     10  N   UNL     1       1.693   6.081  -7.978  0.00  0.00    -0.230 N 
ATOM     11  C   UNL     1       2.093   7.304  -8.456  0.00  0.00    +0.231 C 
ATOM     12  O   UNL     1       2.238   8.466  -7.973  0.00  0.00    -0.274 OA
ATOM     13  C   UNL     1       3.078   7.032  -9.689  0.00  0.00    +0.086 C 
ATOM     14  C   UNL     1       3.389   5.376  -9.296  0.00  0.00    +0.009 C 
ATOM     15  C   UNL     1       4.553   5.161 -10.386  0.00  0.00    +0.001 C 
ATOM     16  C   UNL     1       3.571   5.541  -9.288  0.00  0.00    +0.009 C 
ATOM     17  C   UNL     1       3.453   4.099  -8.577  0.00  0.00    +0.001 C 
ATOM     18  C   UNL     1       4.244   5.330  -7.956  0.00  0.00    +0.001 C 
ATOM     19  C   UNL     1       2.196   5.717 -10.348  0.00  0.00    +0.086 C 
ENDBRANCH   7  10
ENDBRANCH   1   7
BRANCH   2  20
ATOM     20  C   UNL     1       1.985   5.854  -3.329  0.00  0.00    +0.072 C 
BRANCH  20  21
ATOM     21  N   UNL     1       2.927   5.104  -2.668  0.00  0.00    -0.270 NA
ATOM     22  C   UNL     1       4.277   5.559  -2.603  0.00  0.00    +0.094 C 
ATOM     23  C   UNL     1       4.387   6.580  -1.477  0.00  0.00    +0.110 C 
ATOM     24  N   UNL     1       3.178   7.406  -1.472  0.00  0.00    -0.290 N 
ATOM     25  C   UNL     1       3.306   8.643  -0.748  0.00  0.00    +0.140 A 
ATOM     26  C   UNL     1       3.510   8.739   0.620  0.00  0.00    +0.040 A 
ATOM     27  C   UNL     1       3.081   9.956   1.110  0.00  0.00    +0.050 A 
ATOM     28  C   UNL     1       2.760  10.182   2.435  0.00  0.00    +0.008 A 
ATOM     29  C   UNL     1       3.013   9.172   3.355  0.00  0.00    +0.001 A 
ATOM     30  C   UNL     1       3.509   7.966   2.875  0.00  0.00    +0.000 A 
ATOM     31  S   UNL     1       3.305  10.962  -0.260  0.00  0.00    +0.014 S 
ATOM     32  C   UNL     1       3.474   7.679   1.524  0.00  0.00    +0.003 A 
ATOM     33  N   UNL     1       3.726   9.764  -1.384  0.00  0.00    -0.194 NA
ATOM     34  C   UNL     1       1.990   6.628  -1.113  0.00  0.00    +0.110 C 
ATOM     35  C   UNL     1       2.415   5.169  -1.288  0.00  0.00    +0.094 C 
ENDBRANCH  20  21
ENDBRANCH   2  20
TORSDOF 4
ENDMDL
