MODEL 1
REMARK VINA RESULT:     -11.4      0.000      0.000
REMARK  Name = 
REMARK  13 active torsions:
REMARK  status: ('A' for Active; 'I' for Inactive)
REMARK    1  A    between atoms: C_2  and  O_4
REMARK    2  A    between atoms: O_4  and  C_5
REMARK    3  A    between atoms: C_21  and  O_22
REMARK    4  A    between atoms: O_22  and  C_23
REMARK    5  A    between atoms: C_23  and  C_25
REMARK    6  A    between atoms: C_25  and  C_27
REMARK    7  A    between atoms: C_27  and  N_28
REMARK    8  A    between atoms: C_27  and  C_36
REMARK    9  A    between atoms: C_29  and  O_31
REMARK   10  A    between atoms: O_31  and  C_32
REMARK   11  A    between atoms: C_45  and  O_46
REMARK   12  A    between atoms: O_46  and  C_47
REMARK   13  A    between atoms: C_47  and  C_49
REMARK                            x       y       z     vdW  Elec       q    Type
REMARK                         _______ _______ _______ _____ _____    ______ ____
ROOT
ATOM      1  C   UNL     1       0.432   6.803  -0.485  0.00  0.00    +0.191 C 
ATOM      2  C   UNL     1       0.083   6.421  -1.892  0.00  0.00    +0.093 C 
ATOM      3  C   UNL     1      -1.345   6.460  -2.348  0.00  0.00    +0.089 C 
ATOM      4  C   UNL     1      -2.057   6.160  -3.634  0.00  0.00    +0.186 C 
ATOM      5  C   UNL     1      -1.634   5.697  -4.997  0.00  0.00    +0.227 C 
ATOM      6  C   UNL     1      -0.326   5.342  -5.638  0.00  0.00    -0.010 C 
ATOM      7  C   UNL     1       1.103   5.304  -5.183  0.00  0.00    +0.047 C 
ATOM      8  C   UNL     1       1.501   4.842  -6.554  0.00  0.00    +0.007 C 
ATOM      9  C   UNL     1       2.066   5.049  -5.634  0.00  0.00    +0.007 C 
ATOM     10  C   UNL     1       1.814   5.604  -3.897  0.00  0.00    +0.170 C 
ATOM     11  O   UNL     1       3.296   5.391  -3.998  0.00  0.00    -0.222 OA
ATOM     12  C   UNL     1       2.752   5.162  -4.982  0.00  0.00    +0.082 C 
ATOM     13  C   UNL     1       2.217   4.818  -6.340  0.00  0.00    +0.189 C 
ATOM     14  C   UNL     1       0.745   4.916  -6.614  0.00  0.00    -0.010 C 
ATOM     15  C   UNL     1       0.211   4.572  -7.973  0.00  0.00    +0.029 C 
ATOM     16  O   UNL     1      -2.792   5.555  -5.940  0.00  0.00    -0.211 OA
ATOM     17  O   UNL     1      -3.538   6.372  -3.534  0.00  0.00    -0.293 OA
ATOM     18  C   UNL     1      -2.817   6.558  -2.623  0.00  0.00    +0.010 C 
ATOM     19  C   UNL     1      -2.425   6.880  -1.396  0.00  0.00    +0.161 C 
ATOM     20  O   UNL     1      -3.854   6.918  -1.852  0.00  0.00    -0.223 OA
ATOM     21  C   UNL     1      -2.077   7.261   0.012  0.00  0.00    +0.067 C 
ATOM     22  C   UNL     1       1.392   6.067  -2.534  0.00  0.00    +0.201 C 
ATOM     23  C   UNL     1      -0.648   7.223   0.468  0.00  0.00    +0.157 C 
ATOM     24  O   UNL     1       0.377   7.421   1.544  0.00  0.00    -0.349 OA
ATOM     25  C   UNL     1       1.457   7.001   0.591  0.00  0.00    +0.185 C 
ENDROOT
BRANCH  13  26
ATOM     26  O   UNL     1       3.153   4.376  -7.425  0.00  0.00    -0.446 OA
BRANCH  26  27
ATOM     27  C   UNL     1       3.954   5.392  -8.185  0.00  0.00    +0.350 C 
ATOM     28  O   UNL     1       5.444   5.450  -8.020  0.00  0.00    -0.247 OA
BRANCH  27  29
ATOM     29  C   UNL     1       3.265   6.351  -9.110  0.00  0.00    +0.274 C 
ATOM     30  O   UNL     1       2.723   7.646  -8.581  0.00  0.00    -0.209 OA
BRANCH  29  31
ATOM     31  C   UNL     1       3.116   6.014 -10.564  0.00  0.00    +0.162 C 
BRANCH  31  32
ATOM     32  C   UNL     1       1.907   6.477 -11.321  0.00  0.00    +0.001 A 
ATOM     33  C   UNL     1       1.955   6.587 -12.817  0.00  0.00    -0.003 A 
ATOM     34  C   UNL     1       0.747   7.050 -13.574  0.00  0.00    -0.000 A 
ATOM     35  C   UNL     1      -0.510   7.403 -12.837  0.00  0.00    -0.000 A 
ATOM     36  C   UNL     1      -0.560   7.293 -11.341  0.00  0.00    -0.000 A 
ATOM     37  C   UNL     1       0.650   6.830 -10.584  0.00  0.00    -0.003 A 
ENDBRANCH  31  32
BRANCH  31  38
ATOM     38  N   UNL     1       4.177   5.215 -11.261  0.00  0.00    -0.163 NA
ATOM     39  C   UNL     1       5.476   5.862 -11.639  0.00  0.00    +0.421 C 
ATOM     40  O   UNL     1       5.715   7.309 -11.320  0.00  0.00    -0.225 OA
BRANCH  39  41
ATOM     41  O   UNL     1       6.537   5.063 -12.336  0.00  0.00    -0.441 OA
BRANCH  41  42
ATOM     42  C   UNL     1       7.964   5.528 -12.314  0.00  0.00    +0.138 C 
ATOM     43  C   UNL     1       9.389   5.994 -12.292  0.00  0.00    +0.044 C 
ATOM     44  C   UNL     1       7.842   5.966 -13.743  0.00  0.00    +0.044 C 
ATOM     45  C   UNL     1       8.085   5.090 -10.885  0.00  0.00    +0.044 C 
ENDBRANCH  41  42
ENDBRANCH  39  41
ENDBRANCH  31  38
ENDBRANCH  29  31
ENDBRANCH  27  29
ENDBRANCH  26  27
ENDBRANCH  13  26
BRANCH  22  46
ATOM     46  O   UNL     1       2.551   6.209  -1.591  0.00  0.00    -0.446 OA
BRANCH  46  47
ATOM     47  C   UNL     1       3.449   7.406  -1.682  0.00  0.00    +0.341 C 
ATOM     48  O   UNL     1       3.781   7.995  -3.021  0.00  0.00    -0.245 OA
BRANCH  47  49
ATOM     49  C   UNL     1       4.017   8.014  -0.434  0.00  0.00    +0.076 A 
ATOM     50  C   UNL     1       4.957   7.222   0.426  0.00  0.00    +0.006 A 
ATOM     51  C   UNL     1       5.524   7.830   1.674  0.00  0.00    +0.000 A 
ATOM     52  C   UNL     1       5.152   9.230   2.062  0.00  0.00    +0.000 A 
ATOM     53  C   UNL     1       4.213  10.022   1.202  0.00  0.00    +0.000 A 
ATOM     54  C   UNL     1       3.645   9.415  -0.046  0.00  0.00    +0.006 A 
ENDBRANCH  47  49
ENDBRANCH  46  47
ENDBRANCH  22  46
BRANCH   1  55
ATOM     55  O   UNL     1       1.741   6.448  -1.126  0.00  0.00    -0.451 OA
BRANCH  55  57
ATOM     56  C   UNL     1       3.678   4.717  -1.132  0.00  0.00    +0.121 C 
ATOM     57  C   UNL     1       2.210   5.023  -1.135  0.00  0.00    +0.317 C 
ATOM     58  O   UNL     1       1.210   3.904  -1.147  0.00  0.00    -0.250 OA
ENDBRANCH  55  57
ENDBRANCH   1  55
TORSDOF 13
ENDMDL
MODEL 2
REMARK VINA RESULT:     -11.2      1.064      3.182
REMARK  Name = 
REMARK  13 active torsions:
REMARK  status: ('A' for Active; 'I' for Inactive)
REMARK    1  A    between atoms: C_2  and  O_4
REMARK    2  A    between atoms: O_4  and  C_5
REMARK    3  A    between atoms: C_21  and  O_22
REMARK    4  A    between atoms: O_22  and  C_23
REMARK    5  A    between atoms: C_23  and  C_25
REMARK    6  A    between atoms: C_25  and  C_27
REMARK    7  A    between atoms: C_27  and  N_28
REMARK    8  A    between atoms: C_27  and  C_36
REMARK    9  A    between atoms: C_29  and  O_31
REMARK   10  A    between atoms: O_31  and  C_32
REMARK   11  A    between atoms: C_45  and  O_46
REMARK   12  A    between atoms: O_46  and  C_47
REMARK   13  A    between atoms: C_47  and  C_49
REMARK                            x       y       z     vdW  Elec       q    Type
REMARK                         _______ _______ _______ _____ _____    ______ ____
ROOT
ATOM      1  C   UNL     1       0.498   6.679  -0.589  0.00  0.00    +0.191 C 
ATOM      2  C   UNL     1       0.106   6.346  -1.998  0.00  0.00    +0.093 C 
ATOM      3  C   UNL     1      -1.332   6.427  -2.415  0.00  0.00    +0.089 C 
ATOM      4  C   UNL     1      -2.082   6.180  -3.691  0.00  0.00    +0.186 C 
ATOM      5  C   UNL     1      -1.703   5.748  -5.077  0.00  0.00    +0.227 C 
ATOM      6  C   UNL     1      -0.419   5.385  -5.761  0.00  0.00    -0.010 C 
ATOM      7  C   UNL     1       1.020   5.303  -5.344  0.00  0.00    +0.047 C 
ATOM      8  C   UNL     1       1.372   4.872  -6.737  0.00  0.00    +0.007 C 
ATOM      9  C   UNL     1       1.964   5.042  -5.826  0.00  0.00    +0.007 C 
ATOM     10  C   UNL     1       1.769   5.551  -4.068  0.00  0.00    +0.170 C 
ATOM     11  O   UNL     1       3.243   5.310  -4.213  0.00  0.00    -0.222 OA
ATOM     12  C   UNL     1       2.669   5.120  -5.189  0.00  0.00    +0.082 C 
ATOM     13  C   UNL     1       2.093   4.827  -6.543  0.00  0.00    +0.189 C 
ATOM     14  C   UNL     1       0.617   4.965  -6.776  0.00  0.00    -0.010 C 
ATOM     15  C   UNL     1       0.042   4.671  -8.130  0.00  0.00    +0.029 C 
ATOM     16  O   UNL     1      -2.888   5.658  -5.993  0.00  0.00    -0.211 OA
ATOM     17  O   UNL     1      -3.555   6.420  -3.546  0.00  0.00    -0.293 OA
ATOM     18  C   UNL     1      -2.807   6.564  -2.650  0.00  0.00    +0.010 C 
ATOM     19  C   UNL     1      -2.378   6.842  -1.424  0.00  0.00    +0.161 C 
ATOM     20  O   UNL     1      -3.817   6.924  -1.843  0.00  0.00    -0.223 OA
ATOM     21  C   UNL     1      -1.986   7.175  -0.016  0.00  0.00    +0.067 C 
ATOM     22  C   UNL     1       1.391   5.983  -2.683  0.00  0.00    +0.201 C 
ATOM     23  C   UNL     1      -0.548   7.094   0.402  0.00  0.00    +0.157 C 
ATOM     24  O   UNL     1       0.508   7.239   1.457  0.00  0.00    -0.349 OA
ATOM     25  C   UNL     1       1.555   6.824   0.466  0.00  0.00    +0.185 C 
ENDROOT
BRANCH  13  26
ATOM     26  O   UNL     1       2.992   4.397  -7.663  0.00  0.00    -0.446 OA
BRANCH  26  27
ATOM     27  C   UNL     1       4.017   5.348  -8.209  0.00  0.00    +0.350 C 
ATOM     28  O   UNL     1       5.475   5.109  -7.951  0.00  0.00    -0.247 OA
BRANCH  27  29
ATOM     29  C   UNL     1       3.583   6.537  -9.014  0.00  0.00    +0.274 C 
ATOM     30  O   UNL     1       2.906   7.693  -8.338  0.00  0.00    -0.209 OA
BRANCH  29  31
ATOM     31  C   UNL     1       3.825   6.571 -10.494  0.00  0.00    +0.162 C 
BRANCH  31  32
ATOM     32  C   UNL     1       5.210   6.369 -11.032  0.00  0.00    +0.001 A 
ATOM     33  C   UNL     1       5.449   5.387 -12.140  0.00  0.00    -0.003 A 
ATOM     34  C   UNL     1       6.834   5.185 -12.679  0.00  0.00    -0.000 A 
ATOM     35  C   UNL     1       7.980   5.966 -12.109  0.00  0.00    -0.000 A 
ATOM     36  C   UNL     1       7.743   6.949 -11.001  0.00  0.00    -0.000 A 
ATOM     37  C   UNL     1       6.357   7.150 -10.462  0.00  0.00    -0.003 A 
ENDBRANCH  31  32
BRANCH  31  38
ATOM     38  N   UNL     1       2.681   6.806 -11.435  0.00  0.00    -0.163 NA
ATOM     39  C   UNL     1       1.580   5.793 -11.545  0.00  0.00    +0.421 C 
ATOM     40  O   UNL     1       1.623   4.545 -10.714  0.00  0.00    -0.225 OA
BRANCH  39  41
ATOM     41  O   UNL     1       0.436   6.028 -12.487  0.00  0.00    -0.441 OA
BRANCH  41  42
ATOM     42  C   UNL     1       0.704   6.429 -13.908  0.00  0.00    +0.138 C 
ATOM     43  C   UNL     1       0.972   6.829 -15.329  0.00  0.00    +0.044 C 
ATOM     44  C   UNL     1       1.074   5.013 -14.237  0.00  0.00    +0.044 C 
ATOM     45  C   UNL     1       0.335   7.845 -13.579  0.00  0.00    +0.044 C 
ENDBRANCH  41  42
ENDBRANCH  39  41
ENDBRANCH  31  38
ENDBRANCH  29  31
ENDBRANCH  27  29
ENDBRANCH  26  27
ENDBRANCH  13  26
BRANCH  22  46
ATOM     46  O   UNL     1       2.576   6.073  -1.766  0.00  0.00    -0.446 OA
BRANCH  46  47
ATOM     47  C   UNL     1       3.492   7.258  -1.839  0.00  0.00    +0.341 C 
ATOM     48  O   UNL     1       3.893   7.815  -3.173  0.00  0.00    -0.245 OA
BRANCH  47  49
ATOM     49  C   UNL     1       4.006   7.887  -0.578  0.00  0.00    +0.076 A 
ATOM     50  C   UNL     1       4.938   7.121   0.316  0.00  0.00    +0.006 A 
ATOM     51  C   UNL     1       5.453   7.749   1.576  0.00  0.00    +0.000 A 
ATOM     52  C   UNL     1       5.036   9.143   1.944  0.00  0.00    +0.000 A 
ATOM     53  C   UNL     1       4.105   9.908   1.051  0.00  0.00    +0.000 A 
ATOM     54  C   UNL     1       3.590   9.280  -0.210  0.00  0.00    +0.006 A 
ENDBRANCH  47  49
ENDBRANCH  46  47
ENDBRANCH  22  46
BRANCH   1  55
ATOM     55  O   UNL     1       1.783   6.316  -1.274  0.00  0.00    -0.451 OA
BRANCH  55  57
ATOM     56  C   UNL     1       3.729   4.595  -1.307  0.00  0.00    +0.121 C 
ATOM     57  C   UNL     1       2.260   4.893  -1.267  0.00  0.00    +0.317 C 
ATOM     58  O   UNL     1       1.267   3.769  -1.221  0.00  0.00    -0.250 OA
ENDBRANCH  55  57
ENDBRANCH   1  55
TORSDOF 13
ENDMDL
MODEL 3
REMARK VINA RESULT:     -10.9      2.598     11.655
REMARK  Name = 
REMARK  13 active torsions:
REMARK  status: ('A' for Active; 'I' for Inactive)
REMARK    1  A    between atoms: C_2  and  O_4
REMARK    2  A    between atoms: O_4  and  C_5
REMARK    3  A    between atoms: C_21  and  O_22
REMARK    4  A    between atoms: O_22  and  C_23
REMARK    5  A    between atoms: C_23  and  C_25
REMARK    6  A    between atoms: C_25  and  C_27
REMARK    7  A    between atoms: C_27  and  N_28
REMARK    8  A    between atoms: C_27  and  C_36
REMARK    9  A    between atoms: C_29  and  O_31
REMARK   10  A    between atoms: O_31  and  C_32
REMARK   11  A    between atoms: C_45  and  O_46
REMARK   12  A    between atoms: O_46  and  C_47
REMARK   13  A    between atoms: C_47  and  C_49
REMARK                            x       y       z     vdW  Elec       q    Type
REMARK                         _______ _______ _______ _____ _____    ______ ____
ROOT
ATOM      1  C   UNL     1       4.046   6.534 -14.892  0.00  0.00    +0.191 C 
ATOM      2  C   UNL     1       4.415   6.232 -13.471  0.00  0.00    +0.093 C 
ATOM      3  C   UNL     1       5.852   6.266 -13.045  0.00  0.00    +0.089 C 
ATOM      4  C   UNL     1       6.583   6.030 -11.757  0.00  0.00    +0.186 C 
ATOM      5  C   UNL     1       6.178   5.660 -10.360  0.00  0.00    +0.227 C 
ATOM      6  C   UNL     1       4.876   5.375  -9.674  0.00  0.00    -0.010 C 
ATOM      7  C   UNL     1       3.438   5.340 -10.098  0.00  0.00    +0.047 C 
ATOM      8  C   UNL     1       3.059   4.972  -8.695  0.00  0.00    +0.007 C 
ATOM      9  C   UNL     1       2.480   5.135  -9.615  0.00  0.00    +0.007 C 
ATOM     10  C   UNL     1       2.707   5.577 -11.387  0.00  0.00    +0.170 C 
ATOM     11  O   UNL     1       1.224   5.404 -11.246  0.00  0.00    -0.222 OA
ATOM     12  C   UNL     1       1.783   5.223 -10.260  0.00  0.00    +0.082 C 
ATOM     13  C   UNL     1       2.338   4.951  -8.893  0.00  0.00    +0.189 C 
ATOM     14  C   UNL     1       3.817   5.033  -8.654  0.00  0.00    -0.010 C 
ATOM     15  C   UNL     1       4.370   4.761  -7.286  0.00  0.00    +0.029 C 
ATOM     16  O   UNL     1       7.352   5.551  -9.432  0.00  0.00    -0.211 OA
ATOM     17  O   UNL     1       8.066   6.203 -11.898  0.00  0.00    -0.293 OA
ATOM     18  C   UNL     1       7.331   6.348 -12.805  0.00  0.00    +0.010 C 
ATOM     19  C   UNL     1       6.921   6.603 -14.042  0.00  0.00    +0.161 C 
ATOM     20  O   UNL     1       8.359   6.638 -13.615  0.00  0.00    -0.223 OA
ATOM     21  C   UNL     1       6.552   6.906 -15.463  0.00  0.00    +0.067 C 
ATOM     22  C   UNL     1       3.112   5.946 -12.784  0.00  0.00    +0.201 C 
ATOM     23  C   UNL     1       5.115   6.871 -15.889  0.00  0.00    +0.157 C 
ATOM     24  O   UNL     1       4.072   7.026 -16.955  0.00  0.00    -0.349 OA
ATOM     25  C   UNL     1       3.003   6.689 -15.959  0.00  0.00    +0.185 C 
ENDROOT
BRANCH  13  26
ATOM     26  O   UNL     1       1.414   4.597  -7.766  0.00  0.00    -0.446 OA
BRANCH  26  27
ATOM     27  C   UNL     1       0.515   5.643  -7.176  0.00  0.00    +0.350 C 
ATOM     28  O   UNL     1      -0.968   5.564  -7.388  0.00  0.00    -0.247 OA
BRANCH  27  29
ATOM     29  C   UNL     1       1.099   6.768  -6.375  0.00  0.00    +0.274 C 
ATOM     30  O   UNL     1       1.799   7.899  -7.069  0.00  0.00    -0.209 OA
BRANCH  29  31
ATOM     31  C   UNL     1       0.983   6.763  -4.879  0.00  0.00    +0.162 C 
BRANCH  31  32
ATOM     32  C   UNL     1      -0.363   6.634  -4.231  0.00  0.00    +0.001 A 
ATOM     33  C   UNL     1      -0.618   5.536  -3.242  0.00  0.00    -0.003 A 
ATOM     34  C   UNL     1      -1.963   5.406  -2.594  0.00  0.00    -0.000 A 
ATOM     35  C   UNL     1      -3.056   6.375  -2.935  0.00  0.00    -0.000 A 
ATOM     36  C   UNL     1      -2.803   7.474  -3.925  0.00  0.00    -0.000 A 
ATOM     37  C   UNL     1      -1.456   7.604  -4.573  0.00  0.00    -0.003 A 
ENDBRANCH  31  32
BRANCH  31  38
ATOM     38  N   UNL     1       2.214   6.887  -4.032  0.00  0.00    -0.163 NA
ATOM     39  C   UNL     1       3.131   5.712  -3.864  0.00  0.00    +0.421 C 
ATOM     40  O   UNL     1       2.815   4.412  -4.543  0.00  0.00    -0.225 OA
BRANCH  39  41
ATOM     41  O   UNL     1       4.362   5.836  -3.016  0.00  0.00    -0.441 OA
BRANCH  41  42
ATOM     42  C   UNL     1       4.241   6.205  -1.566  0.00  0.00    +0.138 C 
ATOM     43  C   UNL     1       4.121   6.574  -0.118  0.00  0.00    +0.044 C 
ATOM     44  C   UNL     1       4.690   7.601  -1.885  0.00  0.00    +0.044 C 
ATOM     45  C   UNL     1       3.794   4.810  -1.248  0.00  0.00    +0.044 C 
ENDBRANCH  41  42
ENDBRANCH  39  41
ENDBRANCH  31  38
ENDBRANCH  29  31
ENDBRANCH  27  29
ENDBRANCH  26  27
ENDBRANCH  13  26
BRANCH  22  46
ATOM     46  O   UNL     1       1.938   6.056 -13.712  0.00  0.00    -0.446 OA
BRANCH  46  47
ATOM     47  C   UNL     1       1.025   7.244 -13.630  0.00  0.00    +0.341 C 
ATOM     48  O   UNL     1       0.514   7.706 -12.298  0.00  0.00    -0.245 OA
BRANCH  47  49
ATOM     49  C   UNL     1       0.625   7.969 -14.880  0.00  0.00    +0.076 A 
ATOM     50  C   UNL     1      -0.211   7.273 -15.915  0.00  0.00    +0.006 A 
ATOM     51  C   UNL     1      -0.612   7.998 -17.165  0.00  0.00    +0.000 A 
ATOM     52  C   UNL     1      -0.178   9.418 -17.381  0.00  0.00    +0.000 A 
ATOM     53  C   UNL     1       0.657  10.112 -16.347  0.00  0.00    +0.000 A 
ATOM     54  C   UNL     1       1.058   9.388 -15.096  0.00  0.00    +0.006 A 
ENDBRANCH  47  49
ENDBRANCH  46  47
ENDBRANCH  22  46
BRANCH   1  55
ATOM     55  O   UNL     1       2.743   6.249 -14.206  0.00  0.00    -0.451 OA
BRANCH  55  57
ATOM     56  C   UNL     1       0.673   4.679 -14.145  0.00  0.00    +0.121 C 
ATOM     57  C   UNL     1       2.157   4.868 -14.252  0.00  0.00    +0.317 C 
ATOM     58  O   UNL     1       3.056   3.676 -14.406  0.00  0.00    -0.250 OA
ENDBRANCH  55  57
ENDBRANCH   1  55
TORSDOF 13
ENDMDL
MODEL 4
REMARK VINA RESULT:     -10.5      2.191      5.902
REMARK  Name = 
REMARK  13 active torsions:
REMARK  status: ('A' for Active; 'I' for Inactive)
REMARK    1  A    between atoms: C_2  and  O_4
REMARK    2  A    between atoms: O_4  and  C_5
REMARK    3  A    between atoms: C_21  and  O_22
REMARK    4  A    between atoms: O_22  and  C_23
REMARK    5  A    between atoms: C_23  and  C_25
REMARK    6  A    between atoms: C_25  and  C_27
REMARK    7  A    between atoms: C_27  and  N_28
REMARK    8  A    between atoms: C_27  and  C_36
REMARK    9  A    between atoms: C_29  and  O_31
REMARK   10  A    between atoms: O_31  and  C_32
REMARK   11  A    between atoms: C_45  and  O_46
REMARK   12  A    between atoms: O_46  and  C_47
REMARK   13  A    between atoms: C_47  and  C_49
REMARK                            x       y       z     vdW  Elec       q    Type
REMARK                         _______ _______ _______ _____ _____    ______ ____
ROOT
ATOM      1  C   UNL     1      -0.865   7.351   0.210  0.00  0.00    +0.191 C 
ATOM      2  C   UNL     1       0.573   7.390  -0.214  0.00  0.00    +0.093 C 
ATOM      3  C   UNL     1       1.625   7.867   0.742  0.00  0.00    +0.089 C 
ATOM      4  C   UNL     1       3.114   8.042   0.682  0.00  0.00    +0.186 C 
ATOM      5  C   UNL     1       4.167   7.810  -0.362  0.00  0.00    +0.227 C 
ATOM      6  C   UNL     1       4.168   7.308  -1.774  0.00  0.00    -0.010 C 
ATOM      7  C   UNL     1       3.117   6.830  -2.732  0.00  0.00    +0.047 C 
ATOM      8  C   UNL     1       4.188   6.607  -3.757  0.00  0.00    +0.007 C 
ATOM      9  C   UNL     1       3.098   6.462  -3.761  0.00  0.00    +0.007 C 
ATOM     10  C   UNL     1       1.628   6.656  -2.671  0.00  0.00    +0.170 C 
ATOM     11  O   UNL     1       1.059   6.126  -3.954  0.00  0.00    -0.222 OA
ATOM     12  C   UNL     1       2.198   6.259  -4.000  0.00  0.00    +0.082 C 
ATOM     13  C   UNL     1       3.674   6.366  -4.245  0.00  0.00    +0.189 C 
ATOM     14  C   UNL     1       4.580   6.870  -3.160  0.00  0.00    -0.010 C 
ATOM     15  C   UNL     1       6.056   6.977  -3.405  0.00  0.00    +0.029 C 
ATOM     16  O   UNL     1       5.542   8.162   0.124  0.00  0.00    -0.211 OA
ATOM     17  O   UNL     1       3.682   8.572   1.964  0.00  0.00    -0.293 OA
ATOM     18  C   UNL     1       2.531   8.371   1.826  0.00  0.00    +0.010 C 
ATOM     19  C   UNL     1       1.238   8.307   2.123  0.00  0.00    +0.161 C 
ATOM     20  O   UNL     1       2.291   8.785   3.079  0.00  0.00    -0.223 OA
ATOM     21  C   UNL     1      -0.199   8.269   2.547  0.00  0.00    +0.067 C 
ATOM     22  C   UNL     1       0.574   6.888  -1.628  0.00  0.00    +0.201 C 
ATOM     23  C   UNL     1      -1.251   7.791   1.591  0.00  0.00    +0.157 C 
ATOM     24  O   UNL     1      -2.688   7.493   1.283  0.00  0.00    -0.349 OA
ATOM     25  C   UNL     1      -2.302   7.054  -0.097  0.00  0.00    +0.185 C 
ENDROOT
BRANCH  13  26
ATOM     26  O   UNL     1       4.245   5.969  -5.573  0.00  0.00    -0.446 OA
BRANCH  26  27
ATOM     27  C   UNL     1       3.504   6.297  -6.836  0.00  0.00    +0.350 C 
ATOM     28  O   UNL     1       3.037   7.700  -7.089  0.00  0.00    -0.247 OA
BRANCH  27  29
ATOM     29  C   UNL     1       3.230   5.222  -7.845  0.00  0.00    +0.274 C 
ATOM     30  O   UNL     1       2.656   3.908  -7.405  0.00  0.00    -0.209 OA
BRANCH  29  31
ATOM     31  C   UNL     1       3.529   5.461  -9.296  0.00  0.00    +0.162 C 
BRANCH  31  32
ATOM     32  C   UNL     1       4.862   6.011  -9.706  0.00  0.00    +0.001 A 
ATOM     33  C   UNL     1       4.938   7.134 -10.698  0.00  0.00    -0.003 A 
ATOM     34  C   UNL     1       6.271   7.685 -11.108  0.00  0.00    -0.000 A 
ATOM     35  C   UNL     1       7.529   7.112 -10.527  0.00  0.00    -0.000 A 
ATOM     36  C   UNL     1       7.455   5.989  -9.535  0.00  0.00    -0.000 A 
ATOM     37  C   UNL     1       6.121   5.439  -9.124  0.00  0.00    -0.003 A 
ENDBRANCH  31  32
BRANCH  31  38
ATOM     38  N   UNL     1       2.494   5.149 -10.336  0.00  0.00    -0.163 NA
ATOM     39  C   UNL     1       1.325   6.068 -10.530  0.00  0.00    +0.421 C 
ATOM     40  O   UNL     1       1.190   7.299  -9.683  0.00  0.00    -0.225 OA
BRANCH  39  41
ATOM     41  O   UNL     1       0.290   5.756 -11.570  0.00  0.00    -0.441 OA
BRANCH  41  42
ATOM     42  C   UNL     1       0.589   5.994 -13.021  0.00  0.00    +0.138 C 
ATOM     43  C   UNL     1       0.888   6.231 -14.471  0.00  0.00    +0.044 C 
ATOM     44  C   UNL     1       0.426   7.470 -12.812  0.00  0.00    +0.044 C 
ATOM     45  C   UNL     1       0.752   4.518 -13.230  0.00  0.00    +0.044 C 
ENDBRANCH  41  42
ENDBRANCH  39  41
ENDBRANCH  31  38
ENDBRANCH  29  31
ENDBRANCH  27  29
ENDBRANCH  26  27
ENDBRANCH  13  26
BRANCH  22  46
ATOM     46  O   UNL     1      -0.801   6.535  -2.113  0.00  0.00    -0.446 OA
BRANCH  46  47
ATOM     47  C   UNL     1      -1.409   7.290  -3.258  0.00  0.00    +0.341 C 
ATOM     48  O   UNL     1      -1.914   8.687  -3.051  0.00  0.00    -0.245 OA
BRANCH  47  49
ATOM     49  C   UNL     1      -1.513   6.648  -4.609  0.00  0.00    +0.076 A 
ATOM     50  C   UNL     1      -0.468   6.922  -5.652  0.00  0.00    +0.006 A 
ATOM     51  C   UNL     1      -0.572   6.280  -7.003  0.00  0.00    +0.000 A 
ATOM     52  C   UNL     1      -1.719   5.364  -7.313  0.00  0.00    +0.000 A 
ATOM     53  C   UNL     1      -2.762   5.090  -6.271  0.00  0.00    +0.000 A 
ATOM     54  C   UNL     1      -2.660   5.732  -4.919  0.00  0.00    +0.006 A 
ENDBRANCH  47  49
ENDBRANCH  46  47
ENDBRANCH  22  46
BRANCH   1  55
ATOM     55  O   UNL     1      -0.864   6.850  -1.204  0.00  0.00    -0.451 OA
BRANCH  55  57
ATOM     56  C   UNL     1       0.225   4.497  -1.386  0.00  0.00    +0.121 C 
ATOM     57  C   UNL     1      -0.985   5.379  -1.478  0.00  0.00    +0.317 C 
ATOM     58  O   UNL     1      -2.316   4.791  -1.843  0.00  0.00    -0.250 OA
ENDBRANCH  55  57
ENDBRANCH   1  55
TORSDOF 13
ENDMDL
MODEL 5
REMARK VINA RESULT:     -10.3      1.688      3.852
REMARK  Name = 
REMARK  13 active torsions:
REMARK  status: ('A' for Active; 'I' for Inactive)
REMARK    1  A    between atoms: C_2  and  O_4
REMARK    2  A    between atoms: O_4  and  C_5
REMARK    3  A    between atoms: C_21  and  O_22
REMARK    4  A    between atoms: O_22  and  C_23
REMARK    5  A    between atoms: C_23  and  C_25
REMARK    6  A    between atoms: C_25  and  C_27
REMARK    7  A    between atoms: C_27  and  N_28
REMARK    8  A    between atoms: C_27  and  C_36
REMARK    9  A    between atoms: C_29  and  O_31
REMARK   10  A    between atoms: O_31  and  C_32
REMARK   11  A    between atoms: C_45  and  O_46
REMARK   12  A    between atoms: O_46  and  C_47
REMARK   13  A    between atoms: C_47  and  C_49
REMARK                            x       y       z     vdW  Elec       q    Type
REMARK                         _______ _______ _______ _____ _____    ______ ____
ROOT
ATOM      1  C   UNL     1       1.542   7.283   0.913  0.00  0.00    +0.191 C 
ATOM      2  C   UNL     1       0.663   7.084  -0.286  0.00  0.00    +0.093 C 
ATOM      3  C   UNL     1      -0.828   7.140  -0.141  0.00  0.00    +0.089 C 
ATOM      4  C   UNL     1      -1.992   6.995  -1.077  0.00  0.00    +0.186 C 
ATOM      5  C   UNL     1      -2.144   6.731  -2.546  0.00  0.00    +0.227 C 
ATOM      6  C   UNL     1      -1.198   6.505  -3.687  0.00  0.00    -0.010 C 
ATOM      7  C   UNL     1       0.295   6.448  -3.833  0.00  0.00    +0.047 C 
ATOM      8  C   UNL     1       0.116   6.186  -5.299  0.00  0.00    +0.007 C 
ATOM      9  C   UNL     1       0.999   6.285  -4.652  0.00  0.00    +0.007 C 
ATOM     10  C   UNL     1       1.457   6.594  -2.896  0.00  0.00    +0.170 C 
ATOM     11  O   UNL     1       2.777   6.441  -3.593  0.00  0.00    -0.222 OA
ATOM     12  C   UNL     1       1.887   6.329  -4.309  0.00  0.00    +0.082 C 
ATOM     13  C   UNL     1       0.858   6.155  -5.386  0.00  0.00    +0.189 C 
ATOM     14  C   UNL     1      -0.602   6.246  -5.050  0.00  0.00    -0.010 C 
ATOM     15  C   UNL     1      -1.630   6.072  -6.128  0.00  0.00    +0.029 C 
ATOM     16  O   UNL     1      -3.581   6.683  -2.975  0.00  0.00    -0.211 OA
ATOM     17  O   UNL     1      -3.311   7.148  -0.381  0.00  0.00    -0.293 OA
ATOM     18  C   UNL     1      -2.288   7.231   0.194  0.00  0.00    +0.010 C 
ATOM     19  C   UNL     1      -1.442   7.397   1.203  0.00  0.00    +0.161 C 
ATOM     20  O   UNL     1      -2.934   7.453   1.348  0.00  0.00    -0.223 OA
ATOM     21  C   UNL     1      -0.563   7.596   2.402  0.00  0.00    +0.067 C 
ATOM     22  C   UNL     1       1.610   6.857  -1.428  0.00  0.00    +0.201 C 
ATOM     23  C   UNL     1       0.928   7.539   2.257  0.00  0.00    +0.157 C 
ATOM     24  O   UNL     1       2.296   7.622   2.866  0.00  0.00    -0.349 OA
ATOM     25  C   UNL     1       2.910   7.365   1.522  0.00  0.00    +0.185 C 
ENDROOT
BRANCH  13  26
ATOM     26  O   UNL     1       1.287   5.890  -6.798  0.00  0.00    -0.446 OA
BRANCH  26  27
ATOM     27  C   UNL     1       2.244   6.825  -7.479  0.00  0.00    +0.350 C 
ATOM     28  O   UNL     1       1.908   8.281  -7.607  0.00  0.00    -0.247 OA
BRANCH  27  29
ATOM     29  C   UNL     1       3.537   6.302  -8.031  0.00  0.00    +0.274 C 
ATOM     30  O   UNL     1       4.553   5.691  -7.112  0.00  0.00    -0.209 OA
BRANCH  29  31
ATOM     31  C   UNL     1       3.814   6.391  -9.503  0.00  0.00    +0.162 C 
BRANCH  31  32
ATOM     32  C   UNL     1       5.229   6.395 -10.000  0.00  0.00    +0.001 A 
ATOM     33  C   UNL     1       6.251   5.501  -9.363  0.00  0.00    -0.003 A 
ATOM     34  C   UNL     1       7.666   5.505  -9.859  0.00  0.00    -0.000 A 
ATOM     35  C   UNL     1       8.059   6.403 -10.995  0.00  0.00    -0.000 A 
ATOM     36  C   UNL     1       7.038   7.297 -11.634  0.00  0.00    -0.000 A 
ATOM     37  C   UNL     1       5.622   7.293 -11.136  0.00  0.00    -0.003 A 
ENDBRANCH  31  32
BRANCH  31  38
ATOM     38  N   UNL     1       2.676   6.475 -10.477  0.00  0.00    -0.163 NA
ATOM     39  C   UNL     1       1.675   5.362 -10.558  0.00  0.00    +0.421 C 
ATOM     40  O   UNL     1       1.812   4.163  -9.666  0.00  0.00    -0.225 OA
BRANCH  39  41
ATOM     41  O   UNL     1       0.537   5.446 -11.532  0.00  0.00    -0.441 OA
BRANCH  41  42
ATOM     42  C   UNL     1       0.488   6.562 -12.534  0.00  0.00    +0.138 C 
ATOM     43  C   UNL     1       0.439   7.678 -13.535  0.00  0.00    +0.044 C 
ATOM     44  C   UNL     1       1.366   5.771 -13.458  0.00  0.00    +0.044 C 
ATOM     45  C   UNL     1      -0.390   7.353 -11.610  0.00  0.00    +0.044 C 
ENDBRANCH  41  42
ENDBRANCH  39  41
ENDBRANCH  31  38
ENDBRANCH  29  31
ENDBRANCH  27  29
ENDBRANCH  26  27
ENDBRANCH  13  26
BRANCH  22  46
ATOM     46  O   UNL     1       3.048   6.905  -1.000  0.00  0.00    -0.446 OA
BRANCH  46  47
ATOM     47  C   UNL     1       3.896   8.091  -1.353  0.00  0.00    +0.341 C 
ATOM     48  O   UNL     1       4.615   8.133  -2.669  0.00  0.00    -0.245 OA
BRANCH  47  49
ATOM     49  C   UNL     1       4.025   9.234  -0.390  0.00  0.00    +0.076 A 
ATOM     50  C   UNL     1       3.262  10.504  -0.627  0.00  0.00    +0.006 A 
ATOM     51  C   UNL     1       3.391  11.647   0.335  0.00  0.00    +0.000 A 
ATOM     52  C   UNL     1       4.284  11.520   1.534  0.00  0.00    +0.000 A 
ATOM     53  C   UNL     1       5.047  10.251   1.771  0.00  0.00    +0.000 A 
ATOM     54  C   UNL     1       4.918   9.108   0.809  0.00  0.00    +0.006 A 
ENDBRANCH  47  49
ENDBRANCH  46  47
ENDBRANCH  22  46
BRANCH   1  55
ATOM     55  O   UNL     1       2.488   7.057  -0.229  0.00  0.00    -0.451 OA
BRANCH  55  57
ATOM     56  C   UNL     1       4.456   5.439  -0.743  0.00  0.00    +0.121 C 
ATOM     57  C   UNL     1       2.990   5.673  -0.524  0.00  0.00    +0.317 C 
ATOM     58  O   UNL     1       2.027   4.526  -0.599  0.00  0.00    -0.250 OA
ENDBRANCH  55  57
ENDBRANCH   1  55
TORSDOF 13
ENDMDL
MODEL 6
REMARK VINA RESULT:     -10.3      2.365      4.645
REMARK  Name = 
REMARK  13 active torsions:
REMARK  status: ('A' for Active; 'I' for Inactive)
REMARK    1  A    between atoms: C_2  and  O_4
REMARK    2  A    between atoms: O_4  and  C_5
REMARK    3  A    between atoms: C_21  and  O_22
REMARK    4  A    between atoms: O_22  and  C_23
REMARK    5  A    between atoms: C_23  and  C_25
REMARK    6  A    between atoms: C_25  and  C_27
REMARK    7  A    between atoms: C_27  and  N_28
REMARK    8  A    between atoms: C_27  and  C_36
REMARK    9  A    between atoms: C_29  and  O_31
REMARK   10  A    between atoms: O_31  and  C_32
REMARK   11  A    between atoms: C_45  and  O_46
REMARK   12  A    between atoms: O_46  and  C_47
REMARK   13  A    between atoms: C_47  and  C_49
REMARK                            x       y       z     vdW  Elec       q    Type
REMARK                         _______ _______ _______ _____ _____    ______ ____
ROOT
ATOM      1  C   UNL     1       1.438  10.258   2.282  0.00  0.00    +0.191 C 
ATOM      2  C   UNL     1       0.947   9.200   1.340  0.00  0.00    +0.093 C 
ATOM      3  C   UNL     1      -0.512   8.855   1.295  0.00  0.00    +0.089 C 
ATOM      4  C   UNL     1      -1.349   7.887   0.512  0.00  0.00    +0.186 C 
ATOM      5  C   UNL     1      -1.073   6.864  -0.551  0.00  0.00    +0.227 C 
ATOM      6  C   UNL     1       0.152   6.386  -1.270  0.00  0.00    -0.010 C 
ATOM      7  C   UNL     1       1.611   6.731  -1.226  0.00  0.00    +0.047 C 
ATOM      8  C   UNL     1       1.861   5.703  -2.289  0.00  0.00    +0.007 C 
ATOM      9  C   UNL     1       2.515   6.395  -1.740  0.00  0.00    +0.007 C 
ATOM     10  C   UNL     1       2.448   7.699  -0.442  0.00  0.00    +0.170 C 
ATOM     11  O   UNL     1       3.901   7.627  -0.808  0.00  0.00    -0.222 OA
ATOM     12  C   UNL     1       3.261   6.886  -1.407  0.00  0.00    +0.082 C 
ATOM     13  C   UNL     1       2.591   5.865  -2.277  0.00  0.00    +0.189 C 
ATOM     14  C   UNL     1       1.108   5.656  -2.183  0.00  0.00    -0.010 C 
ATOM     15  C   UNL     1       0.439   4.634  -3.054  0.00  0.00    +0.029 C 
ATOM     16  O   UNL     1      -2.317   6.154  -1.000  0.00  0.00    -0.211 OA
ATOM     17  O   UNL     1      -2.802   7.959   0.877  0.00  0.00    -0.293 OA
ATOM     18  C   UNL     1      -1.994   8.645   1.388  0.00  0.00    +0.010 C 
ATOM     19  C   UNL     1      -1.479   9.567   2.192  0.00  0.00    +0.161 C 
ATOM     20  O   UNL     1      -2.938   9.221   2.147  0.00  0.00    -0.223 OA
ATOM     21  C   UNL     1      -0.988  10.625   3.135  0.00  0.00    +0.067 C 
ATOM     22  C   UNL     1       2.173   8.721   0.620  0.00  0.00    +0.201 C 
ATOM     23  C   UNL     1       0.471  10.971   3.180  0.00  0.00    +0.157 C 
ATOM     24  O   UNL     1       1.596  11.781   3.750  0.00  0.00    -0.349 OA
ATOM     25  C   UNL     1       2.564  11.069   2.852  0.00  0.00    +0.185 C 
ENDROOT
BRANCH  13  26
ATOM     26  O   UNL     1       3.403   5.052  -3.241  0.00  0.00    -0.446 OA
BRANCH  26  27
ATOM     27  C   UNL     1       3.205   5.224  -4.719  0.00  0.00    +0.350 C 
ATOM     28  O   UNL     1       3.039   4.020  -5.599  0.00  0.00    -0.247 OA
BRANCH  27  29
ATOM     29  C   UNL     1       3.172   6.599  -5.316  0.00  0.00    +0.274 C 
ATOM     30  O   UNL     1       4.116   7.655  -4.821  0.00  0.00    -0.209 OA
BRANCH  29  31
ATOM     31  C   UNL     1       2.195   6.920  -6.409  0.00  0.00    +0.162 C 
BRANCH  31  32
ATOM     32  C   UNL     1       0.736   6.635  -6.217  0.00  0.00    +0.001 A 
ATOM     33  C   UNL     1       0.065   5.572  -7.036  0.00  0.00    -0.003 A 
ATOM     34  C   UNL     1      -1.394   5.286  -6.846  0.00  0.00    -0.000 A 
ATOM     35  C   UNL     1      -2.184   6.064  -5.835  0.00  0.00    -0.000 A 
ATOM     36  C   UNL     1      -1.515   7.127  -5.015  0.00  0.00    -0.000 A 
ATOM     37  C   UNL     1      -0.054   7.413  -5.207  0.00  0.00    -0.003 A 
ENDBRANCH  31  32
BRANCH  31  38
ATOM     38  N   UNL     1       2.679   7.526  -7.693  0.00  0.00    -0.163 NA
ATOM     39  C   UNL     1       3.303   6.658  -8.744  0.00  0.00    +0.421 C 
ATOM     40  O   UNL     1       3.444   5.182  -8.511  0.00  0.00    -0.225 OA
BRANCH  39  41
ATOM     41  O   UNL     1       3.787   7.264 -10.028  0.00  0.00    -0.441 OA
BRANCH  41  42
ATOM     42  C   UNL     1       4.165   6.379 -11.180  0.00  0.00    +0.138 C 
ATOM     43  C   UNL     1       4.542   5.495 -12.331  0.00  0.00    +0.044 C 
ATOM     44  C   UNL     1       5.610   6.494 -10.794  0.00  0.00    +0.044 C 
ATOM     45  C   UNL     1       2.720   6.265 -11.565  0.00  0.00    +0.044 C 
ENDBRANCH  41  42
ENDBRANCH  39  41
ENDBRANCH  31  38
ENDBRANCH  29  31
ENDBRANCH  27  29
ENDBRANCH  26  27
ENDBRANCH  13  26
BRANCH  22  46
ATOM     46  O   UNL     1       3.416   9.432   1.068  0.00  0.00    -0.446 OA
BRANCH  46  47
ATOM     47  C   UNL     1       3.948  10.587   0.272  0.00  0.00    +0.341 C 
ATOM     48  O   UNL     1       3.602  10.718  -1.182  0.00  0.00    -0.245 OA
BRANCH  47  49
ATOM     49  C   UNL     1       4.826  11.609   0.929  0.00  0.00    +0.076 A 
ATOM     50  C   UNL     1       5.860  11.179   1.930  0.00  0.00    +0.006 A 
ATOM     51  C   UNL     1       6.738  12.202   2.587  0.00  0.00    +0.000 A 
ATOM     52  C   UNL     1       6.583  13.654   2.244  0.00  0.00    +0.000 A 
ATOM     53  C   UNL     1       5.551  14.084   1.245  0.00  0.00    +0.000 A 
ATOM     54  C   UNL     1       4.672  13.062   0.587  0.00  0.00    +0.006 A 
ENDBRANCH  47  49
ENDBRANCH  46  47
ENDBRANCH  22  46
BRANCH   1  55
ATOM     55  O   UNL     1       2.664   9.779   1.563  0.00  0.00    -0.451 OA
BRANCH  55  57
ATOM     56  C   UNL     1       4.896   8.493   1.905  0.00  0.00    +0.121 C 
ATOM     57  C   UNL     1       3.407   8.576   2.065  0.00  0.00    +0.317 C 
ATOM     58  O   UNL     1       2.659   7.455   2.726  0.00  0.00    -0.250 OA
ENDBRANCH  55  57
ENDBRANCH   1  55
TORSDOF 13
ENDMDL
MODEL 7
REMARK VINA RESULT:     -10.2      2.687     12.117
REMARK  Name = 
REMARK  13 active torsions:
REMARK  status: ('A' for Active; 'I' for Inactive)
REMARK    1  A    between atoms: C_2  and  O_4
REMARK    2  A    between atoms: O_4  and  C_5
REMARK    3  A    between atoms: C_21  and  O_22
REMARK    4  A    between atoms: O_22  and  C_23
REMARK    5  A    between atoms: C_23  and  C_25
REMARK    6  A    between atoms: C_25  and  C_27
REMARK    7  A    between atoms: C_27  and  N_28
REMARK    8  A    between atoms: C_27  and  C_36
REMARK    9  A    between atoms: C_29  and  O_31
REMARK   10  A    between atoms: O_31  and  C_32
REMARK   11  A    between atoms: C_45  and  O_46
REMARK   12  A    between atoms: O_46  and  C_47
REMARK   13  A    between atoms: C_47  and  C_49
REMARK                            x       y       z     vdW  Elec       q    Type
REMARK                         _______ _______ _______ _____ _____    ______ ____
ROOT
ATOM      1  C   UNL     1       4.067   6.478 -14.725  0.00  0.00    +0.191 C 
ATOM      2  C   UNL     1       4.422   6.253 -13.285  0.00  0.00    +0.093 C 
ATOM      3  C   UNL     1       5.857   6.290 -12.852  0.00  0.00    +0.089 C 
ATOM      4  C   UNL     1       6.576   6.117 -11.547  0.00  0.00    +0.186 C 
ATOM      5  C   UNL     1       6.156   5.836 -10.134  0.00  0.00    +0.227 C 
ATOM      6  C   UNL     1       4.845   5.612  -9.442  0.00  0.00    -0.010 C 
ATOM      7  C   UNL     1       3.409   5.576  -9.874  0.00  0.00    +0.047 C 
ATOM      8  C   UNL     1       3.015   5.296  -8.455  0.00  0.00    +0.007 C 
ATOM      9  C   UNL     1       2.444   5.415  -9.387  0.00  0.00    +0.007 C 
ATOM     10  C   UNL     1       2.691   5.749 -11.180  0.00  0.00    +0.170 C 
ATOM     11  O   UNL     1       1.204   5.608 -11.040  0.00  0.00    -0.222 OA
ATOM     12  C   UNL     1       1.753   5.476 -10.041  0.00  0.00    +0.082 C 
ATOM     13  C   UNL     1       2.295   5.276  -8.656  0.00  0.00    +0.189 C 
ATOM     14  C   UNL     1       3.773   5.348  -8.411  0.00  0.00    -0.010 C 
ATOM     15  C   UNL     1       4.313   5.147  -7.026  0.00  0.00    +0.029 C 
ATOM     16  O   UNL     1       7.322   5.762  -9.193  0.00  0.00    -0.211 OA
ATOM     17  O   UNL     1       8.062   6.257 -11.687  0.00  0.00    -0.293 OA
ATOM     18  C   UNL     1       7.335   6.362 -12.606  0.00  0.00    +0.010 C 
ATOM     19  C   UNL     1       6.938   6.550 -13.859  0.00  0.00    +0.161 C 
ATOM     20  O   UNL     1       8.374   6.586 -13.424  0.00  0.00    -0.223 OA
ATOM     21  C   UNL     1       6.583   6.775 -15.298  0.00  0.00    +0.067 C 
ATOM     22  C   UNL     1       3.110   6.030 -12.593  0.00  0.00    +0.201 C 
ATOM     23  C   UNL     1       5.148   6.739 -15.732  0.00  0.00    +0.157 C 
ATOM     24  O   UNL     1       4.115   6.848 -16.813  0.00  0.00    -0.349 OA
ATOM     25  C   UNL     1       3.034   6.587 -15.806  0.00  0.00    +0.185 C 
ENDROOT
BRANCH  13  26
ATOM     26  O   UNL     1       1.358   5.003  -7.517  0.00  0.00    -0.446 OA
BRANCH  26  27
ATOM     27  C   UNL     1       0.954   6.116  -6.595  0.00  0.00    +0.350 C 
ATOM     28  O   UNL     1       1.244   7.540  -6.967  0.00  0.00    -0.247 OA
BRANCH  27  29
ATOM     29  C   UNL     1       0.261   5.804  -5.303  0.00  0.00    +0.274 C 
ATOM     30  O   UNL     1      -1.069   5.110  -5.313  0.00  0.00    -0.209 OA
BRANCH  29  31
ATOM     31  C   UNL     1       0.896   6.187  -3.999  0.00  0.00    +0.162 C 
BRANCH  31  32
ATOM     32  C   UNL     1       2.390   6.237  -3.879  0.00  0.00    +0.001 A 
ATOM     33  C   UNL     1       3.101   7.558  -3.906  0.00  0.00    -0.003 A 
ATOM     34  C   UNL     1       4.595   7.609  -3.786  0.00  0.00    -0.000 A 
ATOM     35  C   UNL     1       5.379   6.338  -3.640  0.00  0.00    -0.000 A 
ATOM     36  C   UNL     1       4.669   5.017  -3.613  0.00  0.00    -0.000 A 
ATOM     37  C   UNL     1       3.174   4.966  -3.733  0.00  0.00    -0.003 A 
ENDBRANCH  31  32
BRANCH  31  38
ATOM     38  N   UNL     1       0.037   6.520  -2.815  0.00  0.00    -0.163 NA
ATOM     39  C   UNL     1      -0.087   5.546  -1.682  0.00  0.00    +0.421 C 
ATOM     40  O   UNL     1       0.647   4.239  -1.732  0.00  0.00    -0.225 OA
BRANCH  39  41
ATOM     41  O   UNL     1      -0.946   5.879  -0.498  0.00  0.00    -0.441 OA
BRANCH  41  42
ATOM     42  C   UNL     1      -0.827   7.221   0.163  0.00  0.00    +0.138 C 
ATOM     43  C   UNL     1      -0.707   8.562   0.823  0.00  0.00    +0.044 C 
ATOM     44  C   UNL     1       0.596   6.914   0.526  0.00  0.00    +0.044 C 
ATOM     45  C   UNL     1      -2.249   7.526  -0.200  0.00  0.00    +0.044 C 
ENDBRANCH  41  42
ENDBRANCH  39  41
ENDBRANCH  31  38
ENDBRANCH  29  31
ENDBRANCH  27  29
ENDBRANCH  26  27
ENDBRANCH  13  26
BRANCH  22  46
ATOM     46  O   UNL     1       1.944   6.104 -13.534  0.00  0.00    -0.446 OA
BRANCH  46  47
ATOM     47  C   UNL     1       1.045   7.305 -13.522  0.00  0.00    +0.341 C 
ATOM     48  O   UNL     1       0.535   7.846 -12.219  0.00  0.00    -0.245 OA
BRANCH  47  49
ATOM     49  C   UNL     1       0.657   7.964 -14.811  0.00  0.00    +0.076 A 
ATOM     50  C   UNL     1      -0.157   7.210 -15.823  0.00  0.00    +0.006 A 
ATOM     51  C   UNL     1      -0.545   7.870 -17.113  0.00  0.00    +0.000 A 
ATOM     52  C   UNL     1      -0.121   9.281 -17.392  0.00  0.00    +0.000 A 
ATOM     53  C   UNL     1       0.691  10.034 -16.381  0.00  0.00    +0.000 A 
ATOM     54  C   UNL     1       1.080   9.375 -15.090  0.00  0.00    +0.006 A 
ENDBRANCH  47  49
ENDBRANCH  46  47
ENDBRANCH  22  46
BRANCH   1  55
ATOM     55  O   UNL     1       2.755   6.254 -14.032  0.00  0.00    -0.451 OA
BRANCH  55  57
ATOM     56  C   UNL     1       0.664   4.744 -13.723  0.00  0.00    +0.121 C 
ATOM     57  C   UNL     1       2.120   4.895 -14.051  0.00  0.00    +0.317 C 
ATOM     58  O   UNL     1       2.940   3.688 -14.398  0.00  0.00    -0.250 OA
ENDBRANCH  55  57
ENDBRANCH   1  55
TORSDOF 13
ENDMDL
MODEL 8
REMARK VINA RESULT:     -10.1      1.889      5.128
REMARK  Name = 
REMARK  13 active torsions:
REMARK  status: ('A' for Active; 'I' for Inactive)
REMARK    1  A    between atoms: C_2  and  O_4
REMARK    2  A    between atoms: O_4  and  C_5
REMARK    3  A    between atoms: C_21  and  O_22
REMARK    4  A    between atoms: O_22  and  C_23
REMARK    5  A    between atoms: C_23  and  C_25
REMARK    6  A    between atoms: C_25  and  C_27
REMARK    7  A    between atoms: C_27  and  N_28
REMARK    8  A    between atoms: C_27  and  C_36
REMARK    9  A    between atoms: C_29  and  O_31
REMARK   10  A    between atoms: O_31  and  C_32
REMARK   11  A    between atoms: C_45  and  O_46
REMARK   12  A    between atoms: O_46  and  C_47
REMARK   13  A    between atoms: C_47  and  C_49
REMARK                            x       y       z     vdW  Elec       q    Type
REMARK                         _______ _______ _______ _____ _____    ______ ____
ROOT
ATOM      1  C   UNL     1      -0.916   7.317   0.217  0.00  0.00    +0.191 C 
ATOM      2  C   UNL     1       0.531   7.382  -0.173  0.00  0.00    +0.093 C 
ATOM      3  C   UNL     1       1.553   7.859   0.815  0.00  0.00    +0.089 C 
ATOM      4  C   UNL     1       3.040   8.055   0.791  0.00  0.00    +0.186 C 
ATOM      5  C   UNL     1       4.120   7.853  -0.230  0.00  0.00    +0.227 C 
ATOM      6  C   UNL     1       4.161   7.373  -1.650  0.00  0.00    -0.010 C 
ATOM      7  C   UNL     1       3.139   6.896  -2.639  0.00  0.00    +0.047 C 
ATOM      8  C   UNL     1       4.236   6.703  -3.642  0.00  0.00    +0.007 C 
ATOM      9  C   UNL     1       3.149   6.544  -3.673  0.00  0.00    +0.007 C 
ATOM     10  C   UNL     1       1.651   6.701  -2.615  0.00  0.00    +0.170 C 
ATOM     11  O   UNL     1       1.120   6.182  -3.919  0.00  0.00    -0.222 OA
ATOM     12  C   UNL     1       2.258   6.332  -3.936  0.00  0.00    +0.082 C 
ATOM     13  C   UNL     1       3.738   6.463  -4.145  0.00  0.00    +0.189 C 
ATOM     14  C   UNL     1       4.611   6.963  -3.032  0.00  0.00    -0.010 C 
ATOM     15  C   UNL     1       6.090   7.093  -3.242  0.00  0.00    +0.029 C 
ATOM     16  O   UNL     1       5.479   8.217   0.292  0.00  0.00    -0.211 OA
ATOM     17  O   UNL     1       3.572   8.573   2.094  0.00  0.00    -0.293 OA
ATOM     18  C   UNL     1       2.427   8.359   1.927  0.00  0.00    +0.010 C 
ATOM     19  C   UNL     1       1.129   8.272   2.193  0.00  0.00    +0.161 C 
ATOM     20  O   UNL     1       2.153   8.750   3.180  0.00  0.00    -0.223 OA
ATOM     21  C   UNL     1      -0.317   8.208   2.583  0.00  0.00    +0.067 C 
ATOM     22  C   UNL     1       0.571   6.902  -1.594  0.00  0.00    +0.201 C 
ATOM     23  C   UNL     1      -1.340   7.730   1.595  0.00  0.00    +0.157 C 
ATOM     24  O   UNL     1      -2.766   7.418   1.250  0.00  0.00    -0.349 OA
ATOM     25  C   UNL     1      -2.342   7.005  -0.128  0.00  0.00    +0.185 C 
ENDROOT
BRANCH  13  26
ATOM     26  O   UNL     1       4.344   6.094  -5.466  0.00  0.00    -0.446 OA
BRANCH  26  27
ATOM     27  C   UNL     1       3.547   6.253  -6.728  0.00  0.00    +0.350 C 
ATOM     28  O   UNL     1       3.259   7.624  -7.265  0.00  0.00    -0.247 OA
BRANCH  27  29
ATOM     29  C   UNL     1       3.040   5.042  -7.451  0.00  0.00    +0.274 C 
ATOM     30  O   UNL     1       2.486   3.883  -6.677  0.00  0.00    -0.209 OA
BRANCH  29  31
ATOM     31  C   UNL     1       3.085   4.989  -8.950  0.00  0.00    +0.162 C 
BRANCH  31  32
ATOM     32  C   UNL     1       1.858   5.312  -9.749  0.00  0.00    +0.001 A 
ATOM     33  C   UNL     1       1.515   6.740 -10.053  0.00  0.00    -0.003 A 
ATOM     34  C   UNL     1       0.289   7.064 -10.852  0.00  0.00    -0.000 A 
ATOM     35  C   UNL     1      -0.596   5.959 -11.349  0.00  0.00    -0.000 A 
ATOM     36  C   UNL     1      -0.254   4.530 -11.046  0.00  0.00    -0.000 A 
ATOM     37  C   UNL     1       0.974   4.206 -10.246  0.00  0.00    -0.003 A 
ENDBRANCH  31  32
BRANCH  31  38
ATOM     38  N   UNL     1       4.358   4.613  -9.648  0.00  0.00    -0.163 NA
ATOM     39  C   UNL     1       5.217   5.675 -10.266  0.00  0.00    +0.421 C 
ATOM     40  O   UNL     1       4.803   7.115 -10.185  0.00  0.00    -0.225 OA
BRANCH  39  41
ATOM     41  O   UNL     1       6.490   5.299 -10.964  0.00  0.00    -0.441 OA
BRANCH  41  42
ATOM     42  C   UNL     1       6.782   5.837 -12.335  0.00  0.00    +0.138 C 
ATOM     43  C   UNL     1       7.073   6.374 -13.704  0.00  0.00    +0.044 C 
ATOM     44  C   UNL     1       5.483   5.274 -12.831  0.00  0.00    +0.044 C 
ATOM     45  C   UNL     1       8.080   6.399 -11.838  0.00  0.00    +0.044 C 
ENDBRANCH  41  42
ENDBRANCH  39  41
ENDBRANCH  31  38
ENDBRANCH  29  31
ENDBRANCH  27  29
ENDBRANCH  26  27
ENDBRANCH  13  26
BRANCH  22  46
ATOM     46  O   UNL     1      -0.787   6.538  -2.116  0.00  0.00    -0.446 OA
BRANCH  46  47
ATOM     47  C   UNL     1      -1.380   7.302  -3.262  0.00  0.00    +0.341 C 
ATOM     48  O   UNL     1      -1.899   8.694  -3.047  0.00  0.00    -0.245 OA
BRANCH  47  49
ATOM     49  C   UNL     1      -1.455   6.677  -4.623  0.00  0.00    +0.076 A 
ATOM     50  C   UNL     1      -0.372   6.938  -5.629  0.00  0.00    +0.006 A 
ATOM     51  C   UNL     1      -0.446   6.312  -6.989  0.00  0.00    +0.000 A 
ATOM     52  C   UNL     1      -1.603   5.425  -7.345  0.00  0.00    +0.000 A 
ATOM     53  C   UNL     1      -2.685   5.164  -6.340  0.00  0.00    +0.000 A 
ATOM     54  C   UNL     1      -2.611   5.790  -4.978  0.00  0.00    +0.006 A 
ENDBRANCH  47  49
ENDBRANCH  46  47
ENDBRANCH  22  46
BRANCH   1  55
ATOM     55  O   UNL     1      -0.875   6.837  -1.204  0.00  0.00    -0.451 OA
BRANCH  55  57
ATOM     56  C   UNL     1       0.211   4.492  -1.472  0.00  0.00    +0.121 C 
ATOM     57  C   UNL     1      -1.003   5.373  -1.504  0.00  0.00    +0.317 C 
ATOM     58  O   UNL     1      -2.345   4.790  -1.837  0.00  0.00    -0.250 OA
ENDBRANCH  55  57
ENDBRANCH   1  55
TORSDOF 13
ENDMDL
MODEL 9
REMARK VINA RESULT:      -9.2      3.019     11.435
REMARK  Name = 
REMARK  13 active torsions:
REMARK  status: ('A' for Active; 'I' for Inactive)
REMARK    1  A    between atoms: C_2  and  O_4
REMARK    2  A    between atoms: O_4  and  C_5
REMARK    3  A    between atoms: C_21  and  O_22
REMARK    4  A    between atoms: O_22  and  C_23
REMARK    5  A    between atoms: C_23  and  C_25
REMARK    6  A    between atoms: C_25  and  C_27
REMARK    7  A    between atoms: C_27  and  N_28
REMARK    8  A    between atoms: C_27  and  C_36
REMARK    9  A    between atoms: C_29  and  O_31
REMARK   10  A    between atoms: O_31  and  C_32
REMARK   11  A    between atoms: C_45  and  O_46
REMARK   12  A    between atoms: O_46  and  C_47
REMARK   13  A    between atoms: C_47  and  C_49
REMARK                            x       y       z     vdW  Elec       q    Type
REMARK                         _______ _______ _______ _____ _____    ______ ____
ROOT
ATOM      1  C   UNL     1       5.590   7.098 -15.593  0.00  0.00    +0.191 C 
ATOM      2  C   UNL     1       4.149   7.178 -15.187  0.00  0.00    +0.093 C 
ATOM      3  C   UNL     1       3.115   7.628 -16.176  0.00  0.00    +0.089 C 
ATOM      4  C   UNL     1       1.629   7.828 -16.140  0.00  0.00    +0.186 C 
ATOM      5  C   UNL     1       0.561   7.659 -15.099  0.00  0.00    +0.227 C 
ATOM      6  C   UNL     1       0.537   7.222 -13.665  0.00  0.00    -0.010 C 
ATOM      7  C   UNL     1       1.571   6.771 -12.676  0.00  0.00    +0.047 C 
ATOM      8  C   UNL     1       0.485   6.610 -11.654  0.00  0.00    +0.007 C 
ATOM      9  C   UNL     1       1.572   6.449 -11.632  0.00  0.00    +0.007 C 
ATOM     10  C   UNL     1       3.057   6.571 -12.713  0.00  0.00    +0.170 C 
ATOM     11  O   UNL     1       3.604   6.091 -11.401  0.00  0.00    -0.222 OA
ATOM     12  C   UNL     1       2.466   6.243 -11.373  0.00  0.00    +0.082 C 
ATOM     13  C   UNL     1       0.990   6.384 -11.150  0.00  0.00    +0.189 C 
ATOM     14  C   UNL     1       0.104   6.853 -12.267  0.00  0.00    -0.010 C 
ATOM     15  C   UNL     1      -1.373   6.993 -12.043  0.00  0.00    +0.029 C 
ATOM     16  O   UNL     1      -0.804   8.011 -15.615  0.00  0.00    -0.211 OA
ATOM     17  O   UNL     1       1.082   8.308 -17.451  0.00  0.00    -0.293 OA
ATOM     18  C   UNL     1       2.228   8.097 -17.292  0.00  0.00    +0.010 C 
ATOM     19  C   UNL     1       3.523   7.999 -17.571  0.00  0.00    +0.161 C 
ATOM     20  O   UNL     1       2.488   8.450 -18.559  0.00  0.00    -0.223 OA
ATOM     21  C   UNL     1       4.964   7.920 -17.977  0.00  0.00    +0.067 C 
ATOM     22  C   UNL     1       4.125   6.740 -13.753  0.00  0.00    +0.201 C 
ATOM     23  C   UNL     1       5.998   7.469 -16.988  0.00  0.00    +0.157 C 
ATOM     24  O   UNL     1       7.427   7.163 -16.652  0.00  0.00    -0.349 OA
ATOM     25  C   UNL     1       7.019   6.792 -15.257  0.00  0.00    +0.185 C 
ENDROOT
BRANCH  13  26
ATOM     26  O   UNL     1       0.399   6.056  -9.811  0.00  0.00    -0.446 OA
BRANCH  26  27
ATOM     27  C   UNL     1       1.187   6.314  -8.560  0.00  0.00    +0.350 C 
ATOM     28  O   UNL     1       1.401   7.721  -8.086  0.00  0.00    -0.247 OA
BRANCH  27  29
ATOM     29  C   UNL     1       1.759   5.166  -7.785  0.00  0.00    +0.274 C 
ATOM     30  O   UNL     1       2.361   3.998  -8.508  0.00  0.00    -0.209 OA
BRANCH  29  31
ATOM     31  C   UNL     1       1.730   5.185  -6.285  0.00  0.00    +0.162 C 
BRANCH  31  32
ATOM     32  C   UNL     1       2.942   5.622  -5.517  0.00  0.00    +0.001 A 
ATOM     33  C   UNL     1       3.716   4.624  -4.707  0.00  0.00    -0.003 A 
ATOM     34  C   UNL     1       4.928   5.060  -3.939  0.00  0.00    -0.000 A 
ATOM     35  C   UNL     1       5.366   6.494  -3.980  0.00  0.00    -0.000 A 
ATOM     36  C   UNL     1       4.592   7.492  -4.790  0.00  0.00    -0.000 A 
ATOM     37  C   UNL     1       3.380   7.056  -5.558  0.00  0.00    -0.003 A 
ENDBRANCH  31  32
BRANCH  31  38
ATOM     38  N   UNL     1       0.489   4.767  -5.554  0.00  0.00    -0.163 NA
ATOM     39  C   UNL     1      -0.431   5.805  -4.984  0.00  0.00    +0.421 C 
ATOM     40  O   UNL     1      -0.110   7.262  -5.145  0.00  0.00    -0.225 OA
BRANCH  39  41
ATOM     41  O   UNL     1      -1.673   5.387  -4.253  0.00  0.00    -0.441 OA
BRANCH  41  42
ATOM     42  C   UNL     1      -1.948   5.918  -2.876  0.00  0.00    +0.138 C 
ATOM     43  C   UNL     1      -2.223   6.449  -1.501  0.00  0.00    +0.044 C 
ATOM     44  C   UNL     1      -0.664   5.315  -2.388  0.00  0.00    +0.044 C 
ATOM     45  C   UNL     1      -3.231   6.520  -3.365  0.00  0.00    +0.044 C 
ENDBRANCH  41  42
ENDBRANCH  39  41
ENDBRANCH  31  38
ENDBRANCH  29  31
ENDBRANCH  27  29
ENDBRANCH  26  27
ENDBRANCH  13  26
BRANCH  22  46
ATOM     46  O   UNL     1       5.489   6.388 -13.237  0.00  0.00    -0.446 OA
BRANCH  46  47
ATOM     47  C   UNL     1       6.082   7.160 -12.095  0.00  0.00    +0.341 C 
ATOM     48  O   UNL     1       6.434   8.607 -12.272  0.00  0.00    -0.245 OA
BRANCH  47  49
ATOM     49  C   UNL     1       6.322   6.485 -10.778  0.00  0.00    +0.076 A 
ATOM     50  C   UNL     1       5.226   6.426  -9.755  0.00  0.00    +0.006 A 
ATOM     51  C   UNL     1       5.466   5.751  -8.437  0.00  0.00    +0.000 A 
ATOM     52  C   UNL     1       6.801   5.134  -8.143  0.00  0.00    +0.000 A 
ATOM     53  C   UNL     1       7.896   5.193  -9.165  0.00  0.00    +0.000 A 
ATOM     54  C   UNL     1       7.657   5.868 -10.483  0.00  0.00    +0.006 A 
ENDBRANCH  47  49
ENDBRANCH  46  47
ENDBRANCH  22  46
BRANCH   1  55
ATOM     55  O   UNL     1       5.566   6.660 -14.159  0.00  0.00    -0.451 OA
BRANCH  55  57
ATOM     56  C   UNL     1       4.601   4.283 -13.749  0.00  0.00    +0.121 C 
ATOM     57  C   UNL     1       5.774   5.215 -13.812  0.00  0.00    +0.317 C 
ATOM     58  O   UNL     1       7.156   4.703 -13.529  0.00  0.00    -0.250 OA
ENDBRANCH  55  57
ENDBRANCH   1  55
TORSDOF 13
ENDMDL
