MODEL 1
REMARK VINA RESULT:      -5.7      0.000      0.000
REMARK  Name = 
REMARK  4 active torsions:
REMARK  status: ('A' for Active; 'I' for Inactive)
REMARK    1  A    between atoms: C_2  and  C_3
REMARK    2  A    between atoms: C_3  and  C_4
REMARK    3  A    between atoms: C_4  and  N_5
REMARK    4  A    between atoms: C_13  and  C_14
REMARK                            x       y       z     vdW  Elec       q    Type
REMARK                         _______ _______ _______ _____ _____    ______ ____
ROOT
ATOM      1  N   UNL     1       0.273   5.626  -6.568  0.00  0.00    -0.267 NA
ATOM      2  C   UNL     1       0.896   4.366  -5.902  0.00  0.00    +0.124 C 
ATOM      3  C   UNL     1       2.286   4.190  -6.881  0.00  0.00    +0.202 C 
ATOM      4  O   UNL     1       1.798   4.944  -8.105  0.00  0.00    -0.219 OA
ATOM      5  C   UNL     1       3.357   5.447  -6.493  0.00  0.00    +0.215 C 
ATOM      6  O   UNL     1       3.648   4.871  -5.108  0.00  0.00    -0.218 OA
ATOM      7  C   UNL     1       2.399   6.786  -6.004  0.00  0.00    +0.201 C 
ATOM      8  O   UNL     1       2.955   7.568  -7.205  0.00  0.00    -0.219 OA
ATOM      9  C   UNL     1       1.014   6.604  -6.805  0.00  0.00    +0.108 C 
ENDROOT
BRANCH   2  10
ATOM     10  C   UNL     1       1.513   5.173  -4.641  0.00  0.00    +0.201 C 
ATOM     11  O   UNL     1       0.711   5.145  -3.591  0.00  0.00    -0.219 OA
ENDBRANCH   2  10
BRANCH   1  12
ATOM     12  C   UNL     1      -0.998   5.362  -6.932  0.00  0.00    +0.072 C 
BRANCH  12  13
ATOM     13  C   UNL     1      -2.241   5.756  -6.393  0.00  0.00    +0.017 C 
BRANCH  13  15
ATOM     14  C   UNL     1      -2.114   7.710  -4.728  0.00  0.00    +0.000 C 
ATOM     15  C   UNL     1      -2.547   6.583  -5.323  0.00  0.00    +0.001 C 
ENDBRANCH  13  15
ENDBRANCH  12  13
ENDBRANCH   1  12
TORSDOF 4
ENDMDL
MODEL 2
REMARK VINA RESULT:      -5.6      1.244      1.646
REMARK  Name = 
REMARK  4 active torsions:
REMARK  status: ('A' for Active; 'I' for Inactive)
REMARK    1  A    between atoms: C_2  and  C_3
REMARK    2  A    between atoms: C_3  and  C_4
REMARK    3  A    between atoms: C_4  and  N_5
REMARK    4  A    between atoms: C_13  and  C_14
REMARK                            x       y       z     vdW  Elec       q    Type
REMARK                         _______ _______ _______ _____ _____    ______ ____
ROOT
ATOM      1  N   UNL     1       0.915   5.525  -6.660  0.00  0.00    -0.267 NA
ATOM      2  C   UNL     1       1.974   4.435  -6.993  0.00  0.00    +0.124 C 
ATOM      3  C   UNL     1       2.423   4.952  -8.558  0.00  0.00    +0.202 C 
ATOM      4  O   UNL     1       1.175   5.743  -8.904  0.00  0.00    -0.219 OA
ATOM      5  C   UNL     1       3.324   6.380  -8.395  0.00  0.00    +0.215 C 
ATOM      6  O   UNL     1       4.503   5.650  -7.754  0.00  0.00    -0.218 OA
ATOM      7  C   UNL     1       2.741   7.180  -6.993  0.00  0.00    +0.201 C 
ATOM      8  O   UNL     1       2.294   8.343  -7.894  0.00  0.00    -0.219 OA
ATOM      9  C   UNL     1       1.201   6.721  -6.878  0.00  0.00    +0.108 C 
ENDROOT
BRANCH   2  10
ATOM     10  C   UNL     1       3.145   5.110  -6.101  0.00  0.00    +0.201 C 
ATOM     11  O   UNL     1       3.328   4.476  -4.956  0.00  0.00    -0.219 OA
ENDBRANCH   2  10
BRANCH   1  12
ATOM     12  C   UNL     1      -0.248   4.935  -6.317  0.00  0.00    +0.072 C 
BRANCH  12  13
ATOM     13  C   UNL     1      -1.592   5.245  -6.612  0.00  0.00    +0.017 C 
BRANCH  13  15
ATOM     14  C   UNL     1      -2.466   7.152  -5.126  0.00  0.00    +0.000 C 
ATOM     15  C   UNL     1      -2.452   6.183  -6.061  0.00  0.00    +0.001 C 
ENDBRANCH  13  15
ENDBRANCH  12  13
ENDBRANCH   1  12
TORSDOF 4
ENDMDL
MODEL 3
REMARK VINA RESULT:      -5.5      3.316      5.805
REMARK  Name = 
REMARK  4 active torsions:
REMARK  status: ('A' for Active; 'I' for Inactive)
REMARK    1  A    between atoms: C_2  and  C_3
REMARK    2  A    between atoms: C_3  and  C_4
REMARK    3  A    between atoms: C_4  and  N_5
REMARK    4  A    between atoms: C_13  and  C_14
REMARK                            x       y       z     vdW  Elec       q    Type
REMARK                         _______ _______ _______ _____ _____    ______ ____
ROOT
ATOM      1  N   UNL     1       3.655   5.758  -9.414  0.00  0.00    -0.267 NA
ATOM      2  C   UNL     1       2.923   4.510  -8.841  0.00  0.00    +0.124 C 
ATOM      3  C   UNL     1       2.822   4.973  -7.200  0.00  0.00    +0.202 C 
ATOM      4  O   UNL     1       3.964   5.973  -7.175  0.00  0.00    -0.219 OA
ATOM      5  C   UNL     1       1.681   6.223  -7.083  0.00  0.00    +0.215 C 
ATOM      6  O   UNL     1       0.517   5.290  -7.409  0.00  0.00    -0.218 OA
ATOM      7  C   UNL     1       1.729   7.083  -8.568  0.00  0.00    +0.201 C 
ATOM      8  O   UNL     1       2.193   8.323  -7.787  0.00  0.00    -0.219 OA
ATOM      9  C   UNL     1       3.239   6.891  -9.096  0.00  0.00    +0.108 C 
ENDROOT
BRANCH   2  10
ATOM     10  C   UNL     1       1.461   4.956  -9.374  0.00  0.00    +0.201 C 
ATOM     11  O   UNL     1       1.051   4.213 -10.387  0.00  0.00    -0.219 OA
ENDBRANCH   2  10
BRANCH   1  12
ATOM     12  C   UNL     1       4.769   5.368 -10.066  0.00  0.00    +0.072 C 
BRANCH  12  13
ATOM     13  C   UNL     1       6.103   5.825 -10.022  0.00  0.00    +0.017 C 
BRANCH  13  15
ATOM     14  C   UNL     1       6.434   7.994 -11.361  0.00  0.00    +0.000 C 
ATOM     15  C   UNL     1       6.731   6.865 -10.689  0.00  0.00    +0.001 C 
ENDBRANCH  13  15
ENDBRANCH  12  13
ENDBRANCH   1  12
TORSDOF 4
ENDMDL
MODEL 4
REMARK VINA RESULT:      -5.3      2.514      5.304
REMARK  Name = 
REMARK  4 active torsions:
REMARK  status: ('A' for Active; 'I' for Inactive)
REMARK    1  A    between atoms: C_2  and  C_3
REMARK    2  A    between atoms: C_3  and  C_4
REMARK    3  A    between atoms: C_4  and  N_5
REMARK    4  A    between atoms: C_13  and  C_14
REMARK                            x       y       z     vdW  Elec       q    Type
REMARK                         _______ _______ _______ _____ _____    ______ ____
ROOT
ATOM      1  N   UNL     1       3.489   5.412  -7.393  0.00  0.00    -0.267 NA
ATOM      2  C   UNL     1       2.044   5.809  -7.814  0.00  0.00    +0.124 C 
ATOM      3  C   UNL     1       1.158   4.836  -6.724  0.00  0.00    +0.202 C 
ATOM      4  O   UNL     1       2.220   3.790  -6.438  0.00  0.00    -0.219 OA
ATOM      5  C   UNL     1       1.343   5.495  -5.172  0.00  0.00    +0.215 C 
ATOM      6  O   UNL     1       0.517   6.732  -5.519  0.00  0.00    -0.218 OA
ATOM      7  C   UNL     1       2.889   6.239  -5.126  0.00  0.00    +0.201 C 
ATOM      8  O   UNL     1       3.292   5.236  -4.032  0.00  0.00    -0.219 OA
ATOM      9  C   UNL     1       3.773   5.396  -6.177  0.00  0.00    +0.108 C 
ENDROOT
BRANCH   2  10
ATOM     10  C   UNL     1       2.057   7.221  -7.020  0.00  0.00    +0.201 C 
ATOM     11  O   UNL     1       2.160   8.253  -7.840  0.00  0.00    -0.219 OA
ENDBRANCH   2  10
BRANCH   1  12
ATOM     12  C   UNL     1       4.171   4.982  -8.474  0.00  0.00    +0.072 C 
BRANCH  12  13
ATOM     13  C   UNL     1       5.106   5.615  -9.319  0.00  0.00    +0.017 C 
BRANCH  13  15
ATOM     14  C   UNL     1       7.532   6.207  -9.928  0.00  0.00    +0.000 C 
ATOM     15  C   UNL     1       6.490   5.666  -9.268  0.00  0.00    +0.001 C 
ENDBRANCH  13  15
ENDBRANCH  12  13
ENDBRANCH   1  12
TORSDOF 4
ENDMDL
MODEL 5
REMARK VINA RESULT:      -5.2      2.203      3.631
REMARK  Name = 
REMARK  4 active torsions:
REMARK  status: ('A' for Active; 'I' for Inactive)
REMARK    1  A    between atoms: C_2  and  C_3
REMARK    2  A    between atoms: C_3  and  C_4
REMARK    3  A    between atoms: C_4  and  N_5
REMARK    4  A    between atoms: C_13  and  C_14
REMARK                            x       y       z     vdW  Elec       q    Type
REMARK                         _______ _______ _______ _____ _____    ______ ____
ROOT
ATOM      1  N   UNL     1       1.320   5.127  -7.744  0.00  0.00    -0.267 NA
ATOM      2  C   UNL     1       0.920   6.028  -8.947  0.00  0.00    +0.124 C 
ATOM      3  C   UNL     1       2.260   7.089  -8.960  0.00  0.00    +0.202 C 
ATOM      4  O   UNL     1       2.702   6.913  -7.518  0.00  0.00    -0.219 OA
ATOM      5  C   UNL     1       3.606   6.218  -9.513  0.00  0.00    +0.215 C 
ATOM      6  O   UNL     1       3.045   6.108 -10.930  0.00  0.00    -0.218 OA
ATOM      7  C   UNL     1       3.377   4.585  -9.033  0.00  0.00    +0.201 C 
ATOM      8  O   UNL     1       4.639   4.708  -8.164  0.00  0.00    -0.219 OA
ATOM      9  C   UNL     1       2.486   4.681  -7.694  0.00  0.00    +0.108 C 
ENDROOT
BRANCH   2  10
ATOM     10  C   UNL     1       1.370   4.955 -10.074  0.00  0.00    +0.201 C 
ATOM     11  O   UNL     1       0.337   4.321 -10.600  0.00  0.00    -0.219 OA
ENDBRANCH   2  10
BRANCH   1  12
ATOM     12  C   UNL     1       0.321   5.113  -6.839  0.00  0.00    +0.072 C 
BRANCH  12  13
ATOM     13  C   UNL     1      -1.069   5.325  -6.956  0.00  0.00    +0.017 C 
BRANCH  13  15
ATOM     14  C   UNL     1      -2.426   6.768  -5.319  0.00  0.00    +0.000 C 
ATOM     15  C   UNL     1      -2.016   5.689  -6.012  0.00  0.00    +0.001 C 
ENDBRANCH  13  15
ENDBRANCH  12  13
ENDBRANCH   1  12
TORSDOF 4
ENDMDL
MODEL 6
REMARK VINA RESULT:      -5.1      2.293      4.733
REMARK  Name = 
REMARK  4 active torsions:
REMARK  status: ('A' for Active; 'I' for Inactive)
REMARK    1  A    between atoms: C_2  and  C_3
REMARK    2  A    between atoms: C_3  and  C_4
REMARK    3  A    between atoms: C_4  and  N_5
REMARK    4  A    between atoms: C_13  and  C_14
REMARK                            x       y       z     vdW  Elec       q    Type
REMARK                         _______ _______ _______ _____ _____    ______ ____
ROOT
ATOM      1  N   UNL     1       3.085   6.614  -5.524  0.00  0.00    -0.267 NA
ATOM      2  C   UNL     1       3.008   6.261  -7.038  0.00  0.00    +0.124 C 
ATOM      3  C   UNL     1       2.234   4.741  -6.931  0.00  0.00    +0.202 C 
ATOM      4  O   UNL     1       2.610   4.395  -5.502  0.00  0.00    -0.219 OA
ATOM      5  C   UNL     1       0.622   5.010  -6.477  0.00  0.00    +0.215 C 
ATOM      6  O   UNL     1       0.274   5.653  -7.818  0.00  0.00    -0.218 OA
ATOM      7  C   UNL     1       0.605   6.432  -5.514  0.00  0.00    +0.201 C 
ATOM      8  O   UNL     1       0.105   5.578  -4.337  0.00  0.00    -0.219 OA
ATOM      9  C   UNL     1       2.061   6.468  -4.825  0.00  0.00    +0.108 C 
ENDROOT
BRANCH   2  10
ATOM     10  C   UNL     1       1.742   7.227  -7.336  0.00  0.00    +0.201 C 
ATOM     11  O   UNL     1       2.108   8.374  -7.881  0.00  0.00    -0.219 OA
ENDBRANCH   2  10
BRANCH   1  12
ATOM     12  C   UNL     1       4.363   6.885  -5.189  0.00  0.00    +0.072 C 
BRANCH  12  13
ATOM     13  C   UNL     1       4.928   7.689  -4.177  0.00  0.00    +0.017 C 
BRANCH  13  15
ATOM     14  C   UNL     1       4.344   7.434  -1.687  0.00  0.00    +0.000 C 
ATOM     15  C   UNL     1       5.076   7.468  -2.816  0.00  0.00    +0.001 C 
ENDBRANCH  13  15
ENDBRANCH  12  13
ENDBRANCH   1  12
TORSDOF 4
ENDMDL
MODEL 7
REMARK VINA RESULT:      -5.1      2.456      5.228
REMARK  Name = 
REMARK  4 active torsions:
REMARK  status: ('A' for Active; 'I' for Inactive)
REMARK    1  A    between atoms: C_2  and  C_3
REMARK    2  A    between atoms: C_3  and  C_4
REMARK    3  A    between atoms: C_4  and  N_5
REMARK    4  A    between atoms: C_13  and  C_14
REMARK                            x       y       z     vdW  Elec       q    Type
REMARK                         _______ _______ _______ _____ _____    ______ ____
ROOT
ATOM      1  N   UNL     1       3.365   4.980  -7.280  0.00  0.00    -0.267 NA
ATOM      2  C   UNL     1       3.955   6.039  -6.305  0.00  0.00    +0.124 C 
ATOM      3  C   UNL     1       2.615   7.093  -6.192  0.00  0.00    +0.202 C 
ATOM      4  O   UNL     1       1.922   6.720  -7.491  0.00  0.00    -0.219 OA
ATOM      5  C   UNL     1       1.412   6.309  -5.288  0.00  0.00    +0.215 C 
ATOM      6  O   UNL     1       2.223   6.395  -3.996  0.00  0.00    -0.218 OA
ATOM      7  C   UNL     1       1.590   4.625  -5.575  0.00  0.00    +0.201 C 
ATOM      8  O   UNL     1       0.188   4.629  -6.207  0.00  0.00    -0.219 OA
ATOM      9  C   UNL     1       2.220   4.534  -7.055  0.00  0.00    +0.108 C 
ENDROOT
BRANCH   2  10
ATOM     10  C   UNL     1       3.742   5.133  -4.979  0.00  0.00    +0.201 C 
ATOM     11  O   UNL     1       4.885   4.669  -4.504  0.00  0.00    -0.219 OA
ENDBRANCH   2  10
BRANCH   1  12
ATOM     12  C   UNL     1       4.183   4.840  -8.343  0.00  0.00    +0.072 C 
BRANCH  12  13
ATOM     13  C   UNL     1       5.558   5.097  -8.522  0.00  0.00    +0.017 C 
BRANCH  13  15
ATOM     14  C   UNL     1       7.481   6.167  -9.851  0.00  0.00    +0.000 C 
ATOM     15  C   UNL     1       6.234   5.780  -9.521  0.00  0.00    +0.001 C 
ENDBRANCH  13  15
ENDBRANCH  12  13
ENDBRANCH   1  12
TORSDOF 4
ENDMDL
MODEL 8
REMARK VINA RESULT:      -5.0      2.794      3.583
REMARK  Name = 
REMARK  4 active torsions:
REMARK  status: ('A' for Active; 'I' for Inactive)
REMARK    1  A    between atoms: C_2  and  C_3
REMARK    2  A    between atoms: C_3  and  C_4
REMARK    3  A    between atoms: C_4  and  N_5
REMARK    4  A    between atoms: C_13  and  C_14
REMARK                            x       y       z     vdW  Elec       q    Type
REMARK                         _______ _______ _______ _____ _____    ______ ____
ROOT
ATOM      1  N   UNL     1       1.423   5.332  -8.900  0.00  0.00    -0.267 NA
ATOM      2  C   UNL     1       2.385   4.394  -8.115  0.00  0.00    +0.124 C 
ATOM      3  C   UNL     1       3.791   5.366  -8.122  0.00  0.00    +0.202 C 
ATOM      4  O   UNL     1       3.464   6.230  -9.326  0.00  0.00    -0.219 OA
ATOM      5  C   UNL     1       3.523   6.671  -7.071  0.00  0.00    +0.215 C 
ATOM      6  O   UNL     1       3.543   5.775  -5.834  0.00  0.00    -0.218 OA
ATOM      7  C   UNL     1       1.839   7.002  -7.105  0.00  0.00    +0.201 C 
ATOM      8  O   UNL     1       2.166   8.388  -7.686  0.00  0.00    -0.219 OA
ATOM      9  C   UNL     1       1.367   6.536  -8.573  0.00  0.00    +0.108 C 
ENDROOT
BRANCH   2  10
ATOM     10  C   UNL     1       1.770   4.756  -6.662  0.00  0.00    +0.201 C 
ATOM     11  O   UNL     1       1.170   3.721  -6.102  0.00  0.00    -0.219 OA
ENDBRANCH   2  10
BRANCH   1  12
ATOM     12  C   UNL     1       0.907   4.669  -9.954  0.00  0.00    +0.072 C 
BRANCH  12  13
ATOM     13  C   UNL     1       0.706   5.038 -11.301  0.00  0.00    +0.017 C 
BRANCH  13  15
ATOM     14  C   UNL     1      -0.468   7.314 -11.520  0.00  0.00    +0.000 C 
ATOM     15  C   UNL     1       0.024   6.107 -11.860  0.00  0.00    +0.001 C 
ENDBRANCH  13  15
ENDBRANCH  12  13
ENDBRANCH   1  12
TORSDOF 4
ENDMDL
MODEL 9
REMARK VINA RESULT:      -5.0      2.568      4.587
REMARK  Name = 
REMARK  4 active torsions:
REMARK  status: ('A' for Active; 'I' for Inactive)
REMARK    1  A    between atoms: C_2  and  C_3
REMARK    2  A    between atoms: C_3  and  C_4
REMARK    3  A    between atoms: C_4  and  N_5
REMARK    4  A    between atoms: C_13  and  C_14
REMARK                            x       y       z     vdW  Elec       q    Type
REMARK                         _______ _______ _______ _____ _____    ______ ____
ROOT
ATOM      1  N   UNL     1       3.205   5.499  -6.470  0.00  0.00    -0.267 NA
ATOM      2  C   UNL     1       2.402   4.410  -7.238  0.00  0.00    +0.124 C 
ATOM      3  C   UNL     1       0.886   5.193  -7.330  0.00  0.00    +0.202 C 
ATOM      4  O   UNL     1       1.051   6.147  -6.160  0.00  0.00    -0.219 OA
ATOM      5  C   UNL     1       1.029   6.472  -8.435  0.00  0.00    +0.215 C 
ATOM      6  O   UNL     1       1.172   5.525  -9.625  0.00  0.00    -0.218 OA
ATOM      7  C   UNL     1       2.655   7.018  -8.360  0.00  0.00    +0.201 C 
ATOM      8  O   UNL     1       2.131   8.375  -7.863  0.00  0.00    -0.219 OA
ATOM      9  C   UNL     1       3.122   6.684  -6.855  0.00  0.00    +0.108 C 
ENDROOT
BRANCH   2  10
ATOM     10  C   UNL     1       3.025   4.781  -8.686  0.00  0.00    +0.201 C 
ATOM     11  O   UNL     1       4.020   3.979  -9.021  0.00  0.00    -0.219 OA
ENDBRANCH   2  10
BRANCH   1  12
ATOM     12  C   UNL     1       3.757   4.957  -5.365  0.00  0.00    +0.072 C 
BRANCH  12  13
ATOM     13  C   UNL     1       4.019   5.480  -4.081  0.00  0.00    +0.017 C 
BRANCH  13  15
ATOM     14  C   UNL     1       5.584   7.518  -4.141  0.00  0.00    +0.000 C 
ATOM     15  C   UNL     1       4.676   6.634  -3.685  0.00  0.00    +0.001 C 
ENDBRANCH  13  15
ENDBRANCH  12  13
ENDBRANCH   1  12
TORSDOF 4
ENDMDL
