MODEL 1
REMARK VINA RESULT:      -6.9      0.000      0.000
REMARK  Name = 
REMARK  2 active torsions:
REMARK  status: ('A' for Active; 'I' for Inactive)
REMARK    1  A    between atoms: C_10  and  C_11
REMARK    2  A    between atoms: C_11  and  C_12
REMARK                            x       y       z     vdW  Elec       q    Type
REMARK                         _______ _______ _______ _____ _____    ______ ____
ROOT
ATOM      1  C   UNL     1       5.179   5.694  -9.136  0.00  0.00    -0.000 A 
ATOM      2  C   UNL     1       6.554   5.684  -9.326  0.00  0.00    -0.000 A 
ATOM      3  C   UNL     1       7.022   5.971 -10.602  0.00  0.00    -0.000 A 
ATOM      4  C   UNL     1       8.311   5.583 -10.939  0.00  0.00    -0.000 A 
ATOM      5  C   UNL     1       8.728   5.715 -12.254  0.00  0.00    -0.000 A 
ATOM      6  C   UNL     1       7.779   5.798 -13.254  0.00  0.00    -0.004 A 
ATOM      7  C   UNL     1       6.451   6.086 -12.963  0.00  0.00    -0.010 A 
ATOM      8  C   UNL     1       6.186   6.352 -11.628  0.00  0.00    -0.003 A 
ATOM      9  C   UNL     1       4.911   6.749 -11.254  0.00  0.00    -0.000 A 
ATOM     10  C   UNL     1       4.446   6.535  -9.965  0.00  0.00    -0.000 A 
ENDROOT
BRANCH   7  11
ATOM     11  C   UNL     1       5.361   5.817 -13.938  0.00  0.00    +0.147 C 
BRANCH  11  12
ATOM     12  C   UNL     1       5.371   6.815 -15.049  0.00  0.00    +0.336 C 
ATOM     13  N   UNL     1       6.215   7.965 -15.191  0.00  0.00    -0.030 NA
ATOM     14  C   UNL     1       6.546   8.090 -16.609  0.00  0.00    +0.308 C 
ATOM     15  C   UNL     1       5.357   7.379 -17.234  0.00  0.00    +0.318 C 
ATOM     16  N   UNL     1       4.620   6.820 -16.111  0.00  0.00    -0.061 NA
ENDBRANCH  11  12
ENDBRANCH   7  11
TORSDOF 2
ENDMDL
MODEL 2
REMARK VINA RESULT:      -6.9      3.086      5.597
REMARK  Name = 
REMARK  2 active torsions:
REMARK  status: ('A' for Active; 'I' for Inactive)
REMARK    1  A    between atoms: C_10  and  C_11
REMARK    2  A    between atoms: C_11  and  C_12
REMARK                            x       y       z     vdW  Elec       q    Type
REMARK                         _______ _______ _______ _____ _____    ______ ____
ROOT
ATOM      1  C   UNL     1       6.425   5.951 -14.239  0.00  0.00    -0.000 A 
ATOM      2  C   UNL     1       7.455   5.589 -13.381  0.00  0.00    -0.000 A 
ATOM      3  C   UNL     1       7.137   5.421 -12.040  0.00  0.00    -0.000 A 
ATOM      4  C   UNL     1       8.160   5.466 -11.104  0.00  0.00    -0.000 A 
ATOM      5  C   UNL     1       7.835   5.466  -9.756  0.00  0.00    -0.000 A 
ATOM      6  C   UNL     1       6.568   5.856  -9.371  0.00  0.00    -0.004 A 
ATOM      7  C   UNL     1       5.527   5.924 -10.289  0.00  0.00    -0.010 A 
ATOM      8  C   UNL     1       5.845   5.503 -11.570  0.00  0.00    -0.003 A 
ATOM      9  C   UNL     1       4.846   5.439 -12.532  0.00  0.00    -0.000 A 
ATOM     10  C   UNL     1       5.148   5.535 -13.882  0.00  0.00    -0.000 A 
ENDROOT
BRANCH   7  11
ATOM     11  C   UNL     1       4.279   6.680 -10.000  0.00  0.00    +0.147 C 
BRANCH  11  12
ATOM     12  C   UNL     1       3.369   5.902  -9.108  0.00  0.00    +0.336 C 
ATOM     13  N   UNL     1       2.543   4.784  -9.454  0.00  0.00    -0.030 NA
ATOM     14  C   UNL     1       2.570   3.855  -8.325  0.00  0.00    +0.308 C 
ATOM     15  C   UNL     1       2.897   4.811  -7.189  0.00  0.00    +0.318 C 
ATOM     16  N   UNL     1       3.165   6.087  -7.837  0.00  0.00    -0.061 NA
ENDBRANCH  11  12
ENDBRANCH   7  11
TORSDOF 2
ENDMDL
MODEL 3
REMARK VINA RESULT:      -6.8      7.880     10.603
REMARK  Name = 
REMARK  2 active torsions:
REMARK  status: ('A' for Active; 'I' for Inactive)
REMARK    1  A    between atoms: C_10  and  C_11
REMARK    2  A    between atoms: C_11  and  C_12
REMARK                            x       y       z     vdW  Elec       q    Type
REMARK                         _______ _______ _______ _____ _____    ______ ____
ROOT
ATOM      1  C   UNL     1      -2.879   6.193  -2.214  0.00  0.00    -0.000 A 
ATOM      2  C   UNL     1      -3.284   5.781  -3.476  0.00  0.00    -0.000 A 
ATOM      3  C   UNL     1      -2.291   5.543  -4.418  0.00  0.00    -0.000 A 
ATOM      4  C   UNL     1      -2.638   5.533  -5.761  0.00  0.00    -0.000 A 
ATOM      5  C   UNL     1      -1.631   5.461  -6.712  0.00  0.00    -0.000 A 
ATOM      6  C   UNL     1      -0.350   5.837  -6.362  0.00  0.00    -0.004 A 
ATOM      7  C   UNL     1       0.025   5.960  -5.030  0.00  0.00    -0.010 A 
ATOM      8  C   UNL     1      -0.950   5.607  -4.110  0.00  0.00    -0.003 A 
ATOM      9  C   UNL     1      -0.638   5.599  -2.758  0.00  0.00    -0.000 A 
ATOM     10  C   UNL     1      -1.624   5.766  -1.797  0.00  0.00    -0.000 A 
ENDROOT
BRANCH   7  11
ATOM     11  C   UNL     1       1.247   6.706  -4.627  0.00  0.00    +0.147 C 
BRANCH  11  12
ATOM     12  C   UNL     1       2.372   6.454  -5.576  0.00  0.00    +0.336 C 
ATOM     13  N   UNL     1       3.075   5.225  -5.801  0.00  0.00    -0.030 NA
ATOM     14  C   UNL     1       3.365   5.144  -7.231  0.00  0.00    +0.308 C 
ATOM     15  C   UNL     1       3.361   6.619  -7.598  0.00  0.00    +0.318 C 
ATOM     16  N   UNL     1       2.919   7.305  -6.393  0.00  0.00    -0.061 NA
ENDBRANCH  11  12
ENDBRANCH   7  11
TORSDOF 2
ENDMDL
MODEL 4
REMARK VINA RESULT:      -6.8      3.246      5.066
REMARK  Name = 
REMARK  2 active torsions:
REMARK  status: ('A' for Active; 'I' for Inactive)
REMARK    1  A    between atoms: C_10  and  C_11
REMARK    2  A    between atoms: C_11  and  C_12
REMARK                            x       y       z     vdW  Elec       q    Type
REMARK                         _______ _______ _______ _____ _____    ______ ____
ROOT
ATOM      1  C   UNL     1       7.808   6.907 -10.540  0.00  0.00    -0.000 A 
ATOM      2  C   UNL     1       7.362   6.161  -9.457  0.00  0.00    -0.000 A 
ATOM      3  C   UNL     1       6.123   5.545  -9.576  0.00  0.00    -0.000 A 
ATOM      4  C   UNL     1       5.466   5.147  -8.419  0.00  0.00    -0.000 A 
ATOM      5  C   UNL     1       4.163   4.685  -8.515  0.00  0.00    -0.000 A 
ATOM      6  C   UNL     1       3.409   5.026  -9.620  0.00  0.00    -0.004 A 
ATOM      7  C   UNL     1       4.007   5.524 -10.772  0.00  0.00    -0.010 A 
ATOM      8  C   UNL     1       5.391   5.573 -10.742  0.00  0.00    -0.003 A 
ATOM      9  C   UNL     1       6.083   5.959 -11.881  0.00  0.00    -0.000 A 
ATOM     10  C   UNL     1       7.351   6.514 -11.792  0.00  0.00    -0.000 A 
ENDROOT
BRANCH   7  11
ATOM     11  C   UNL     1       3.221   6.237 -11.814  0.00  0.00    +0.147 C 
BRANCH  11  12
ATOM     12  C   UNL     1       1.754   6.045 -11.612  0.00  0.00    +0.336 C 
ATOM     13  N   UNL     1       0.929   4.984 -12.110  0.00  0.00    -0.030 NA
ATOM     14  C   UNL     1      -0.048   4.666 -11.071  0.00  0.00    +0.308 C 
ATOM     15  C   UNL     1      -0.100   5.991 -10.327  0.00  0.00    +0.318 C 
ATOM     16  N   UNL     1       0.947   6.802 -10.930  0.00  0.00    -0.061 NA
ENDBRANCH  11  12
ENDBRANCH   7  11
TORSDOF 2
ENDMDL
MODEL 5
REMARK VINA RESULT:      -6.5      3.755      6.288
REMARK  Name = 
REMARK  2 active torsions:
REMARK  status: ('A' for Active; 'I' for Inactive)
REMARK    1  A    between atoms: C_10  and  C_11
REMARK    2  A    between atoms: C_11  and  C_12
REMARK                            x       y       z     vdW  Elec       q    Type
REMARK                         _______ _______ _______ _____ _____    ______ ____
ROOT
ATOM      1  C   UNL     1       8.084   5.317 -12.082  0.00  0.00    -0.000 A 
ATOM      2  C   UNL     1       6.889   5.497 -12.766  0.00  0.00    -0.000 A 
ATOM      3  C   UNL     1       5.767   5.820 -12.014  0.00  0.00    -0.000 A 
ATOM      4  C   UNL     1       4.513   5.611 -12.570  0.00  0.00    -0.000 A 
ATOM      5  C   UNL     1       3.391   5.772 -11.771  0.00  0.00    -0.000 A 
ATOM      6  C   UNL     1       3.528   5.697 -10.399  0.00  0.00    -0.004 A 
ATOM      7  C   UNL     1       4.775   5.800  -9.794  0.00  0.00    -0.010 A 
ATOM      8  C   UNL     1       5.828   6.055 -10.658  0.00  0.00    -0.003 A 
ATOM      9  C   UNL     1       7.096   6.275 -10.139  0.00  0.00    -0.000 A 
ATOM     10  C   UNL     1       8.231   6.026 -10.896  0.00  0.00    -0.000 A 
ENDROOT
BRANCH   7  11
ATOM     11  C   UNL     1       5.003   5.358  -8.393  0.00  0.00    +0.147 C 
BRANCH  11  12
ATOM     12  C   UNL     1       3.802   5.616  -7.542  0.00  0.00    +0.336 C 
ATOM     13  N   UNL     1       3.332   6.874  -7.043  0.00  0.00    -0.030 NA
ATOM     14  C   UNL     1       1.871   6.844  -7.091  0.00  0.00    +0.308 C 
ATOM     15  C   UNL     1       1.623   5.346  -7.019  0.00  0.00    +0.318 C 
ATOM     16  N   UNL     1       2.945   4.742  -7.104  0.00  0.00    -0.061 NA
ENDBRANCH  11  12
ENDBRANCH   7  11
TORSDOF 2
ENDMDL
MODEL 6
REMARK VINA RESULT:      -6.5      8.972     10.931
REMARK  Name = 
REMARK  2 active torsions:
REMARK  status: ('A' for Active; 'I' for Inactive)
REMARK    1  A    between atoms: C_10  and  C_11
REMARK    2  A    between atoms: C_11  and  C_12
REMARK                            x       y       z     vdW  Elec       q    Type
REMARK                         _______ _______ _______ _____ _____    ______ ____
ROOT
ATOM      1  C   UNL     1      -2.662   7.652  -4.539  0.00  0.00    -0.000 A 
ATOM      2  C   UNL     1      -2.289   6.875  -5.628  0.00  0.00    -0.000 A 
ATOM      3  C   UNL     1      -1.265   5.956  -5.433  0.00  0.00    -0.000 A 
ATOM      4  C   UNL     1      -0.594   5.465  -6.544  0.00  0.00    -0.000 A 
ATOM      5  C   UNL     1       0.532   4.679  -6.351  0.00  0.00    -0.000 A 
ATOM      6  C   UNL     1       1.208   4.757  -5.150  0.00  0.00    -0.004 A 
ATOM      7  C   UNL     1       0.618   5.330  -4.029  0.00  0.00    -0.010 A 
ATOM      8  C   UNL     1      -0.696   5.734  -4.199  0.00  0.00    -0.003 A 
ATOM      9  C   UNL     1      -1.403   6.224  -3.110  0.00  0.00    -0.000 A 
ATOM     10  C   UNL     1      -2.473   7.089  -3.283  0.00  0.00    -0.000 A 
ENDROOT
BRANCH   7  11
ATOM     11  C   UNL     1       1.425   5.762  -2.857  0.00  0.00    +0.147 C 
BRANCH  11  12
ATOM     12  C   UNL     1       2.789   6.206  -3.273  0.00  0.00    +0.336 C 
ATOM     13  N   UNL     1       4.010   5.457  -3.226  0.00  0.00    -0.030 NA
ATOM     14  C   UNL     1       4.782   5.808  -4.416  0.00  0.00    +0.308 C 
ATOM     15  C   UNL     1       4.223   7.190  -4.711  0.00  0.00    +0.318 C 
ATOM     16  N   UNL     1       3.124   7.359  -3.772  0.00  0.00    -0.061 NA
ENDBRANCH  11  12
ENDBRANCH   7  11
TORSDOF 2
ENDMDL
MODEL 7
REMARK VINA RESULT:      -6.5      3.231      5.051
REMARK  Name = 
REMARK  2 active torsions:
REMARK  status: ('A' for Active; 'I' for Inactive)
REMARK    1  A    between atoms: C_10  and  C_11
REMARK    2  A    between atoms: C_11  and  C_12
REMARK                            x       y       z     vdW  Elec       q    Type
REMARK                         _______ _______ _______ _____ _____    ______ ____
ROOT
ATOM      1  C   UNL     1       8.127   5.364 -10.777  0.00  0.00    -0.000 A 
ATOM      2  C   UNL     1       7.659   5.501 -12.077  0.00  0.00    -0.000 A 
ATOM      3  C   UNL     1       6.305   5.763 -12.242  0.00  0.00    -0.000 A 
ATOM      4  C   UNL     1       5.725   5.507 -13.476  0.00  0.00    -0.000 A 
ATOM      5  C   UNL     1       4.348   5.606 -13.602  0.00  0.00    -0.000 A 
ATOM      6  C   UNL     1       3.562   5.518 -12.471  0.00  0.00    -0.004 A 
ATOM      7  C   UNL     1       4.109   5.668 -11.202  0.00  0.00    -0.010 A 
ATOM      8  C   UNL     1       5.459   5.982 -11.177  0.00  0.00    -0.003 A 
ATOM      9  C   UNL     1       6.073   6.251  -9.962  0.00  0.00    -0.000 A 
ATOM     10  C   UNL     1       7.436   6.063  -9.794  0.00  0.00    -0.000 A 
ENDROOT
BRANCH   7  11
ATOM     11  C   UNL     1       3.389   5.217  -9.982  0.00  0.00    +0.147 C 
BRANCH  11  12
ATOM     12  C   UNL     1       1.919   5.461 -10.100  0.00  0.00    +0.336 C 
ATOM     13  N   UNL     1       1.227   6.713 -10.017  0.00  0.00    -0.030 NA
ATOM     14  C   UNL     1       0.138   6.674 -10.991  0.00  0.00    +0.308 C 
ATOM     15  C   UNL     1      -0.084   5.175 -11.098  0.00  0.00    +0.318 C 
ATOM     16  N   UNL     1       0.989   4.579 -10.316  0.00  0.00    -0.061 NA
ENDBRANCH  11  12
ENDBRANCH   7  11
TORSDOF 2
ENDMDL
MODEL 8
REMARK VINA RESULT:      -6.4      2.102      2.770
REMARK  Name = 
REMARK  2 active torsions:
REMARK  status: ('A' for Active; 'I' for Inactive)
REMARK    1  A    between atoms: C_10  and  C_11
REMARK    2  A    between atoms: C_11  and  C_12
REMARK                            x       y       z     vdW  Elec       q    Type
REMARK                         _______ _______ _______ _____ _____    ______ ____
ROOT
ATOM      1  C   UNL     1       6.406   5.276  -8.774  0.00  0.00    -0.000 A 
ATOM      2  C   UNL     1       7.441   5.701  -9.595  0.00  0.00    -0.000 A 
ATOM      3  C   UNL     1       7.133   5.962 -10.925  0.00  0.00    -0.000 A 
ATOM      4  C   UNL     1       8.165   5.986 -11.853  0.00  0.00    -0.000 A 
ATOM      5  C   UNL     1       7.850   6.080 -13.200  0.00  0.00    -0.000 A 
ATOM      6  C   UNL     1       6.588   5.714 -13.622  0.00  0.00    -0.004 A 
ATOM      7  C   UNL     1       5.540   5.578 -12.720  0.00  0.00    -0.010 A 
ATOM      8  C   UNL     1       5.845   5.909 -11.409  0.00  0.00    -0.003 A 
ATOM      9  C   UNL     1       4.839   5.902 -10.454  0.00  0.00    -0.000 A 
ATOM     10  C   UNL     1       5.130   5.712  -9.111  0.00  0.00    -0.000 A 
ENDROOT
BRANCH   7  11
ATOM     11  C   UNL     1       4.297   4.840 -13.071  0.00  0.00    +0.147 C 
BRANCH  11  12
ATOM     12  C   UNL     1       3.200   5.779 -13.454  0.00  0.00    +0.336 C 
ATOM     13  N   UNL     1       2.820   6.196 -14.771  0.00  0.00    -0.030 NA
ATOM     14  C   UNL     1       1.362   6.299 -14.792  0.00  0.00    +0.308 C 
ATOM     15  C   UNL     1       1.081   6.543 -13.319  0.00  0.00    +0.318 C 
ATOM     16  N   UNL     1       2.369   6.385 -12.659  0.00  0.00    -0.061 NA
ENDBRANCH  11  12
ENDBRANCH   7  11
TORSDOF 2
ENDMDL
MODEL 9
REMARK VINA RESULT:      -6.4      2.709      5.036
REMARK  Name = 
REMARK  2 active torsions:
REMARK  status: ('A' for Active; 'I' for Inactive)
REMARK    1  A    between atoms: C_10  and  C_11
REMARK    2  A    between atoms: C_11  and  C_12
REMARK                            x       y       z     vdW  Elec       q    Type
REMARK                         _______ _______ _______ _____ _____    ______ ____
ROOT
ATOM      1  C   UNL     1       3.620   7.109  -5.476  0.00  0.00    -0.000 A 
ATOM      2  C   UNL     1       2.660   7.143  -6.479  0.00  0.00    -0.000 A 
ATOM      3  C   UNL     1       2.964   6.501  -7.673  0.00  0.00    -0.000 A 
ATOM      4  C   UNL     1       2.247   6.843  -8.811  0.00  0.00    -0.000 A 
ATOM      5  C   UNL     1       2.652   6.333 -10.035  0.00  0.00    -0.000 A 
ATOM      6  C   UNL     1       3.950   5.885 -10.180  0.00  0.00    -0.004 A 
ATOM      7  C   UNL     1       4.747   5.622  -9.072  0.00  0.00    -0.010 A 
ATOM      8  C   UNL     1       4.118   5.770  -7.846  0.00  0.00    -0.003 A 
ATOM      9  C   UNL     1       4.801   5.432  -6.686  0.00  0.00    -0.000 A 
ATOM     10  C   UNL     1       4.469   6.009  -5.469  0.00  0.00    -0.000 A 
ENDROOT
BRANCH   7  11
ATOM     11  C   UNL     1       6.226   5.506  -9.184  0.00  0.00    +0.147 C 
BRANCH  11  12
ATOM     12  C   UNL     1       6.724   6.129 -10.446  0.00  0.00    +0.336 C 
ATOM     13  N   UNL     1       7.069   5.474 -11.673  0.00  0.00    -0.030 NA
ATOM     14  C   UNL     1       6.635   6.340 -12.767  0.00  0.00    +0.308 C 
ATOM     15  C   UNL     1       6.650   7.692 -12.073  0.00  0.00    +0.318 C 
ATOM     16  N   UNL     1       6.925   7.393 -10.675  0.00  0.00    -0.061 NA
ENDBRANCH  11  12
ENDBRANCH   7  11
TORSDOF 2
ENDMDL
