MODEL 1
REMARK VINA RESULT:      -8.2      0.000      0.000
REMARK  Name = 
REMARK  9 active torsions:
REMARK  status: ('A' for Active; 'I' for Inactive)
REMARK    1  A    between atoms: C_2  and  N_3
REMARK    2  A    between atoms: N_3  and  C_4
REMARK    3  A    between atoms: N_3  and  C_6
REMARK    4  A    between atoms: C_6  and  C_7
REMARK    5  A    between atoms: C_7  and  O_8
REMARK    6  A    between atoms: O_8  and  C_9
REMARK    7  A    between atoms: C_12  and  C_13
REMARK    8  A    between atoms: C_13  and  C_22
REMARK    9  A    between atoms: C_14  and  C_16
REMARK                            x       y       z     vdW  Elec       q    Type
REMARK                         _______ _______ _______ _____ _____    ______ ____
ROOT
ATOM      1  C   UNL     1       3.232   5.666  -9.030  0.00  0.00    +0.011 C 
ATOM      2  C   UNL     1       4.478   5.503  -9.473  0.00  0.00    +0.058 C 
ATOM      3 CL   UNL     1       5.665   4.908  -8.316  0.00  0.00    -0.082 Cl
ENDROOT
BRANCH   1   7
ATOM      4  C   UNL     1       1.972   5.909  -4.981  0.00  0.00    +0.139 A 
ATOM      5  C   UNL     1       2.477   6.999  -5.673  0.00  0.00    +0.037 A 
ATOM      6  C   UNL     1       3.034   6.913  -6.920  0.00  0.00    +0.003 A 
ATOM      7  C   UNL     1       2.933   5.717  -7.593  0.00  0.00    +0.001 A 
ATOM      8  C   UNL     1       2.544   4.570  -6.913  0.00  0.00    +0.003 A 
ATOM      9  C   UNL     1       2.013   4.695  -5.643  0.00  0.00    +0.037 A 
BRANCH   4  10
ATOM     10  O   UNL     1       0.987   6.175  -4.052  0.00  0.00    -0.474 OA
BRANCH  10  11
ATOM     11  C   UNL     1       0.018   5.256  -3.620  0.00  0.00    +0.223 C 
BRANCH  11  12
ATOM     12  C   UNL     1      -1.392   5.720  -3.868  0.00  0.00    +0.120 C 
BRANCH  12  13
ATOM     13  N   UNL     1      -1.553   6.393  -5.137  0.00  0.00    -0.270 NA
BRANCH  13  15
ATOM     14  C   UNL     1      -1.983   8.613  -4.308  0.00  0.00    +0.019 C 
ATOM     15  C   UNL     1      -2.572   7.432  -5.038  0.00  0.00    +0.072 C 
ENDBRANCH  13  15
BRANCH  13  16
ATOM     16  C   UNL     1      -2.061   5.430  -6.110  0.00  0.00    +0.072 C 
ATOM     17  C   UNL     1      -1.120   5.304  -7.294  0.00  0.00    +0.019 C 
ENDBRANCH  13  16
ENDBRANCH  12  13
ENDBRANCH  11  12
ENDBRANCH  10  11
ENDBRANCH   4  10
ENDBRANCH   1   7
BRANCH   2  18
ATOM     18  C   UNL     1       4.884   6.147 -10.730  0.00  0.00    +0.011 A 
ATOM     19  C   UNL     1       5.278   5.368 -11.810  0.00  0.00    +0.001 A 
ATOM     20  C   UNL     1       6.153   5.875 -12.763  0.00  0.00    +0.000 A 
ATOM     21  C   UNL     1       6.936   6.975 -12.434  0.00  0.00    +0.000 A 
ATOM     22  C   UNL     1       6.371   7.869 -11.535  0.00  0.00    +0.000 A 
ATOM     23  C   UNL     1       5.292   7.474 -10.774  0.00  0.00    +0.001 A 
ENDBRANCH   2  18
BRANCH   1  24
ATOM     24  C   UNL     1       2.170   5.675 -10.042  0.00  0.00    +0.001 A 
ATOM     25  C   UNL     1       1.490   6.866 -10.245  0.00  0.00    +0.000 A 
ATOM     26  C   UNL     1       0.188   6.908 -10.713  0.00  0.00    +0.000 A 
ATOM     27  C   UNL     1      -0.550   5.737 -10.755  0.00  0.00    +0.000 A 
ATOM     28  C   UNL     1       0.137   4.541 -10.721  0.00  0.00    +0.000 A 
ATOM     29  C   UNL     1       1.486   4.521 -10.397  0.00  0.00    +0.000 A 
ENDBRANCH   1  24
TORSDOF 9
ENDMDL
MODEL 2
REMARK VINA RESULT:      -8.0      3.061      8.148
REMARK  Name = 
REMARK  9 active torsions:
REMARK  status: ('A' for Active; 'I' for Inactive)
REMARK    1  A    between atoms: C_2  and  N_3
REMARK    2  A    between atoms: N_3  and  C_4
REMARK    3  A    between atoms: N_3  and  C_6
REMARK    4  A    between atoms: C_6  and  C_7
REMARK    5  A    between atoms: C_7  and  O_8
REMARK    6  A    between atoms: O_8  and  C_9
REMARK    7  A    between atoms: C_12  and  C_13
REMARK    8  A    between atoms: C_13  and  C_22
REMARK    9  A    between atoms: C_14  and  C_16
REMARK                            x       y       z     vdW  Elec       q    Type
REMARK                         _______ _______ _______ _____ _____    ______ ____
ROOT
ATOM      1  C   UNL     1       1.109   5.761  -6.444  0.00  0.00    +0.011 C 
ATOM      2  C   UNL     1      -0.116   5.594  -5.947  0.00  0.00    +0.058 C 
ATOM      3 CL   UNL     1      -1.311   4.849  -7.004  0.00  0.00    -0.082 Cl
ENDROOT
BRANCH   1   7
ATOM      4  C   UNL     1       2.199   5.766 -10.549  0.00  0.00    +0.139 A 
ATOM      5  C   UNL     1       1.415   6.760  -9.983  0.00  0.00    +0.037 A 
ATOM      6  C   UNL     1       0.921   6.701  -8.709  0.00  0.00    +0.003 A 
ATOM      7  C   UNL     1       1.363   5.688  -7.888  0.00  0.00    +0.001 A 
ATOM      8  C   UNL     1       2.053   4.610  -8.429  0.00  0.00    +0.003 A 
ATOM      9  C   UNL     1       2.511   4.695  -9.729  0.00  0.00    +0.037 A 
BRANCH   4  10
ATOM     10  O   UNL     1       3.057   6.161 -11.555  0.00  0.00    -0.474 OA
BRANCH  10  11
ATOM     11  C   UNL     1       4.368   5.688 -11.726  0.00  0.00    +0.223 C 
BRANCH  11  12
ATOM     12  C   UNL     1       5.388   6.473 -10.946  0.00  0.00    +0.120 C 
BRANCH  12  13
ATOM     13  N   UNL     1       6.646   5.779 -10.797  0.00  0.00    -0.270 NA
BRANCH  13  15
ATOM     14  C   UNL     1       5.820   5.365  -8.574  0.00  0.00    +0.019 C 
ATOM     15  C   UNL     1       7.035   5.720  -9.393  0.00  0.00    +0.072 C 
ENDBRANCH  13  15
BRANCH  13  16
ATOM     16  C   UNL     1       7.686   6.557 -11.465  0.00  0.00    +0.072 C 
ATOM     17  C   UNL     1       8.507   5.684 -12.396  0.00  0.00    +0.019 C 
ENDBRANCH  13  16
ENDBRANCH  12  13
ENDBRANCH  11  12
ENDBRANCH  10  11
ENDBRANCH   4  10
ENDBRANCH   1   7
BRANCH   2  18
ATOM     18  C   UNL     1      -0.511   6.337  -4.743  0.00  0.00    +0.011 A 
ATOM     19  C   UNL     1      -0.803   5.652  -3.571  0.00  0.00    +0.001 A 
ATOM     20  C   UNL     1      -1.670   6.197  -2.632  0.00  0.00    +0.000 A 
ATOM     21  C   UNL     1      -2.541   7.204  -3.030  0.00  0.00    +0.000 A 
ATOM     22  C   UNL     1      -2.078   8.034  -4.042  0.00  0.00    +0.000 A 
ATOM     23  C   UNL     1      -1.008   7.633  -4.812  0.00  0.00    +0.001 A 
ENDBRANCH   2  18
BRANCH   1  24
ATOM     24  C   UNL     1       2.198   5.906  -5.472  0.00  0.00    +0.001 A 
ATOM     25  C   UNL     1       3.010   7.025  -5.582  0.00  0.00    +0.000 A 
ATOM     26  C   UNL     1       4.323   7.035  -5.147  0.00  0.00    +0.000 A 
ATOM     27  C   UNL     1       4.931   5.838  -4.811  0.00  0.00    +0.000 A 
ATOM     28  C   UNL     1       4.118   4.758  -4.535  0.00  0.00    +0.000 A 
ATOM     29  C   UNL     1       2.765   4.809  -4.837  0.00  0.00    +0.000 A 
ENDBRANCH   1  24
TORSDOF 9
ENDMDL
MODEL 3
REMARK VINA RESULT:      -7.6      3.258      8.644
REMARK  Name = 
REMARK  9 active torsions:
REMARK  status: ('A' for Active; 'I' for Inactive)
REMARK    1  A    between atoms: C_2  and  N_3
REMARK    2  A    between atoms: N_3  and  C_4
REMARK    3  A    between atoms: N_3  and  C_6
REMARK    4  A    between atoms: C_6  and  C_7
REMARK    5  A    between atoms: C_7  and  O_8
REMARK    6  A    between atoms: O_8  and  C_9
REMARK    7  A    between atoms: C_12  and  C_13
REMARK    8  A    between atoms: C_13  and  C_22
REMARK    9  A    between atoms: C_14  and  C_16
REMARK                            x       y       z     vdW  Elec       q    Type
REMARK                         _______ _______ _______ _____ _____    ______ ____
ROOT
ATOM      1  C   UNL     1       1.665   5.777  -5.994  0.00  0.00    +0.011 C 
ATOM      2  C   UNL     1       0.386   5.664  -5.639  0.00  0.00    +0.058 C 
ATOM      3 CL   UNL     1      -0.664   4.753  -6.720  0.00  0.00    -0.082 Cl
ENDROOT
BRANCH   1   7
ATOM      4  C   UNL     1       3.313   5.115  -9.853  0.00  0.00    +0.139 A 
ATOM      5  C   UNL     1       2.687   6.301  -9.501  0.00  0.00    +0.037 A 
ATOM      6  C   UNL     1       2.013   6.483  -8.324  0.00  0.00    +0.003 A 
ATOM      7  C   UNL     1       2.104   5.497  -7.368  0.00  0.00    +0.001 A 
ATOM      8  C   UNL     1       2.616   4.250  -7.703  0.00  0.00    +0.003 A 
ATOM      9  C   UNL     1       3.265   4.099  -8.914  0.00  0.00    +0.037 A 
BRANCH   4  10
ATOM     10  O   UNL     1       4.372   5.217 -10.731  0.00  0.00    -0.474 OA
BRANCH  10  11
ATOM     11  C   UNL     1       4.519   6.220 -11.702  0.00  0.00    +0.223 C 
BRANCH  11  12
ATOM     12  C   UNL     1       5.299   5.769 -12.907  0.00  0.00    +0.120 C 
BRANCH  12  13
ATOM     13  N   UNL     1       6.654   6.271 -12.927  0.00  0.00    -0.270 NA
BRANCH  13  15
ATOM     14  C   UNL     1       6.056   7.152 -15.086  0.00  0.00    +0.019 C 
ATOM     15  C   UNL     1       7.120   6.430 -14.299  0.00  0.00    +0.072 C 
ENDBRANCH  13  15
BRANCH  13  16
ATOM     16  C   UNL     1       7.528   5.268 -12.324  0.00  0.00    +0.072 C 
ATOM     17  C   UNL     1       8.943   5.795 -12.179  0.00  0.00    +0.019 C 
ENDBRANCH  13  16
ENDBRANCH  12  13
ENDBRANCH  11  12
ENDBRANCH  10  11
ENDBRANCH   4  10
ENDBRANCH   1   7
BRANCH   2  18
ATOM     18  C   UNL     1      -0.159   6.570  -4.619  0.00  0.00    +0.011 A 
ATOM     19  C   UNL     1      -0.374   6.108  -3.327  0.00  0.00    +0.001 A 
ATOM     20  C   UNL     1      -1.345   6.690  -2.521  0.00  0.00    +0.000 A 
ATOM     21  C   UNL     1      -2.352   7.436  -3.121  0.00  0.00    +0.000 A 
ATOM     22  C   UNL     1      -1.998   8.099  -4.287  0.00  0.00    +0.000 A 
ATOM     23  C   UNL     1      -0.854   7.724  -4.960  0.00  0.00    +0.001 A 
ENDBRANCH   2  18
BRANCH   1  24
ATOM     24  C   UNL     1       2.620   6.080  -4.923  0.00  0.00    +0.001 A 
ATOM     25  C   UNL     1       3.386   7.229  -5.054  0.00  0.00    +0.000 A 
ATOM     26  C   UNL     1       4.634   7.360  -4.472  0.00  0.00    +0.000 A 
ATOM     27  C   UNL     1       5.252   6.238  -3.945  0.00  0.00    +0.000 A 
ATOM     28  C   UNL     1       4.463   5.145  -3.655  0.00  0.00    +0.000 A 
ATOM     29  C   UNL     1       3.156   5.086  -4.116  0.00  0.00    +0.000 A 
ENDBRANCH   1  24
TORSDOF 9
ENDMDL
MODEL 4
REMARK VINA RESULT:      -7.5      3.008      7.080
REMARK  Name = 
REMARK  9 active torsions:
REMARK  status: ('A' for Active; 'I' for Inactive)
REMARK    1  A    between atoms: C_2  and  N_3
REMARK    2  A    between atoms: N_3  and  C_4
REMARK    3  A    between atoms: N_3  and  C_6
REMARK    4  A    between atoms: C_6  and  C_7
REMARK    5  A    between atoms: C_7  and  O_8
REMARK    6  A    between atoms: O_8  and  C_9
REMARK    7  A    between atoms: C_12  and  C_13
REMARK    8  A    between atoms: C_13  and  C_22
REMARK    9  A    between atoms: C_14  and  C_16
REMARK                            x       y       z     vdW  Elec       q    Type
REMARK                         _______ _______ _______ _____ _____    ______ ____
ROOT
ATOM      1  C   UNL     1       2.657   6.414  -5.434  0.00  0.00    +0.011 C 
ATOM      2  C   UNL     1       3.359   6.842  -4.385  0.00  0.00    +0.058 C 
ATOM      3 CL   UNL     1       4.807   7.784  -4.725  0.00  0.00    -0.082 Cl
ENDROOT
BRANCH   1   7
ATOM      4  C   UNL     1       4.033   6.074  -9.438  0.00  0.00    +0.139 A 
ATOM      5  C   UNL     1       4.505   5.266  -8.415  0.00  0.00    +0.037 A 
ATOM      6  C   UNL     1       4.197   5.458  -7.095  0.00  0.00    +0.003 A 
ATOM      7  C   UNL     1       3.237   6.393  -6.783  0.00  0.00    +0.001 A 
ATOM      8  C   UNL     1       2.817   7.303  -7.745  0.00  0.00    +0.003 A 
ATOM      9  C   UNL     1       3.172   7.091  -9.063  0.00  0.00    +0.037 A 
BRANCH   4  10
ATOM     10  O   UNL     1       3.941   5.493 -10.685  0.00  0.00    -0.474 OA
BRANCH  10  11
ATOM     11  C   UNL     1       3.628   6.176 -11.871  0.00  0.00    +0.223 C 
BRANCH  11  12
ATOM     12  C   UNL     1       2.314   5.752 -12.470  0.00  0.00    +0.120 C 
BRANCH  12  13
ATOM     13  N   UNL     1       1.170   6.307 -11.782  0.00  0.00    -0.270 NA
BRANCH  13  15
ATOM     14  C   UNL     1       0.230   5.142  -9.897  0.00  0.00    +0.019 C 
ATOM     15  C   UNL     1       0.241   5.251 -11.401  0.00  0.00    +0.072 C 
ENDBRANCH  13  15
BRANCH  13  16
ATOM     16  C   UNL     1       0.439   7.163 -12.713  0.00  0.00    +0.072 C 
ATOM     17  C   UNL     1       0.722   6.770 -14.150  0.00  0.00    +0.019 C 
ENDBRANCH  13  16
ENDBRANCH  12  13
ENDBRANCH  11  12
ENDBRANCH  10  11
ENDBRANCH   4  10
ENDBRANCH   1   7
BRANCH   2  18
ATOM     18  C   UNL     1       3.131   6.229  -3.069  0.00  0.00    +0.011 A 
ATOM     19  C   UNL     1       2.759   7.023  -1.992  0.00  0.00    +0.001 A 
ATOM     20  C   UNL     1       3.061   6.634  -0.692  0.00  0.00    +0.000 A 
ATOM     21  C   UNL     1       4.063   5.693  -0.491  0.00  0.00    +0.000 A 
ATOM     22  C   UNL     1       4.214   4.750  -1.499  0.00  0.00    +0.000 A 
ATOM     23  C   UNL     1       3.659   4.988  -2.738  0.00  0.00    +0.001 A 
ENDBRANCH   2  18
BRANCH   1  24
ATOM     24  C   UNL     1       1.250   6.079  -5.190  0.00  0.00    +0.001 A 
ATOM     25  C   UNL     1       0.730   4.980  -5.856  0.00  0.00    +0.000 A 
ATOM     26  C   UNL     1      -0.615   4.865  -6.163  0.00  0.00    +0.000 A 
ATOM     27  C   UNL     1      -1.434   5.972  -6.023  0.00  0.00    +0.000 A 
ATOM     28  C   UNL     1      -0.991   7.004  -5.223  0.00  0.00    +0.000 A 
ATOM     29  C   UNL     1       0.327   7.036  -4.791  0.00  0.00    +0.000 A 
ENDBRANCH   1  24
TORSDOF 9
ENDMDL
MODEL 5
REMARK VINA RESULT:      -7.4      2.911      4.597
REMARK  Name = 
REMARK  9 active torsions:
REMARK  status: ('A' for Active; 'I' for Inactive)
REMARK    1  A    between atoms: C_2  and  N_3
REMARK    2  A    between atoms: N_3  and  C_4
REMARK    3  A    between atoms: N_3  and  C_6
REMARK    4  A    between atoms: C_6  and  C_7
REMARK    5  A    between atoms: C_7  and  O_8
REMARK    6  A    between atoms: O_8  and  C_9
REMARK    7  A    between atoms: C_12  and  C_13
REMARK    8  A    between atoms: C_13  and  C_22
REMARK    9  A    between atoms: C_14  and  C_16
REMARK                            x       y       z     vdW  Elec       q    Type
REMARK                         _______ _______ _______ _____ _____    ______ ____
ROOT
ATOM      1  C   UNL     1       1.356   5.555  -7.153  0.00  0.00    +0.011 C 
ATOM      2  C   UNL     1       1.476   4.922  -8.319  0.00  0.00    +0.058 C 
ATOM      3 CL   UNL     1       2.855   3.842  -8.502  0.00  0.00    -0.082 Cl
ENDROOT
BRANCH   1   7
ATOM      4  C   UNL     1       4.355   6.031  -4.182  0.00  0.00    +0.139 A 
ATOM      5  C   UNL     1       4.129   6.974  -5.173  0.00  0.00    +0.037 A 
ATOM      6  C   UNL     1       3.282   6.775  -6.229  0.00  0.00    +0.003 A 
ATOM      7  C   UNL     1       2.484   5.653  -6.217  0.00  0.00    +0.001 A 
ATOM      8  C   UNL     1       2.746   4.626  -5.319  0.00  0.00    +0.003 A 
ATOM      9  C   UNL     1       3.630   4.856  -4.282  0.00  0.00    +0.037 A 
BRANCH   4  10
ATOM     10  O   UNL     1       4.749   6.517  -2.952  0.00  0.00    -0.474 OA
BRANCH  10  11
ATOM     11  C   UNL     1       3.930   7.241  -2.073  0.00  0.00    +0.223 C 
BRANCH  11  12
ATOM     12  C   UNL     1       3.170   6.365  -1.112  0.00  0.00    +0.120 C 
BRANCH  12  13
ATOM     13  N   UNL     1       1.783   6.745  -0.974  0.00  0.00    -0.270 NA
BRANCH  13  15
ATOM     14  C   UNL     1       0.089   7.724   0.430  0.00  0.00    +0.019 C 
ATOM     15  C   UNL     1       1.555   7.390   0.313  0.00  0.00    +0.072 C 
ENDBRANCH  13  15
BRANCH  13  16
ATOM     16  C   UNL     1       0.970   5.531  -0.959  0.00  0.00    +0.072 C 
ATOM     17  C   UNL     1       0.478   5.187  -2.352  0.00  0.00    +0.019 C 
ENDBRANCH  13  16
ENDBRANCH  12  13
ENDBRANCH  11  12
ENDBRANCH  10  11
ENDBRANCH   4  10
ENDBRANCH   1   7
BRANCH   2  18
ATOM     18  C   UNL     1       0.719   5.407  -9.481  0.00  0.00    +0.011 A 
ATOM     19  C   UNL     1       0.091   4.500 -10.324  0.00  0.00    +0.001 A 
ATOM     20  C   UNL     1      -0.142   4.819 -11.656  0.00  0.00    +0.000 A 
ATOM     21  C   UNL     1       0.594   5.844 -12.237  0.00  0.00    +0.000 A 
ATOM     22  C   UNL     1       0.974   6.871 -11.383  0.00  0.00    +0.000 A 
ATOM     23  C   UNL     1       0.932   6.669 -10.020  0.00  0.00    +0.001 A 
ENDBRANCH   2  18
BRANCH   1  24
ATOM     24  C   UNL     1       0.017   6.044  -6.804  0.00  0.00    +0.001 A 
ATOM     25  C   UNL     1      -0.072   7.023  -5.827  0.00  0.00    +0.000 A 
ATOM     26  C   UNL     1      -1.195   7.179  -5.033  0.00  0.00    +0.000 A 
ATOM     27  C   UNL     1      -2.165   6.192  -5.038  0.00  0.00    +0.000 A 
ATOM     28  C   UNL     1      -2.184   5.312  -6.100  0.00  0.00    +0.000 A 
ATOM     29  C   UNL     1      -1.117   5.265  -6.985  0.00  0.00    +0.000 A 
ENDBRANCH   1  24
TORSDOF 9
ENDMDL
MODEL 6
REMARK VINA RESULT:      -7.4      2.057      4.204
REMARK  Name = 
REMARK  9 active torsions:
REMARK  status: ('A' for Active; 'I' for Inactive)
REMARK    1  A    between atoms: C_2  and  N_3
REMARK    2  A    between atoms: N_3  and  C_4
REMARK    3  A    between atoms: N_3  and  C_6
REMARK    4  A    between atoms: C_6  and  C_7
REMARK    5  A    between atoms: C_7  and  O_8
REMARK    6  A    between atoms: O_8  and  C_9
REMARK    7  A    between atoms: C_12  and  C_13
REMARK    8  A    between atoms: C_13  and  C_22
REMARK    9  A    between atoms: C_14  and  C_16
REMARK                            x       y       z     vdW  Elec       q    Type
REMARK                         _______ _______ _______ _____ _____    ______ ____
ROOT
ATOM      1  C   UNL     1       3.164   6.077 -10.482  0.00  0.00    +0.011 C 
ATOM      2  C   UNL     1       2.033   6.397 -11.109  0.00  0.00    +0.058 C 
ATOM      3 CL   UNL     1       0.597   6.600 -10.110  0.00  0.00    -0.082 Cl
ENDROOT
BRANCH   1   7
ATOM      4  C   UNL     1       2.762   4.749  -6.467  0.00  0.00    +0.139 A 
ATOM      5  C   UNL     1       3.376   5.947  -6.800  0.00  0.00    +0.037 A 
ATOM      6  C   UNL     1       3.658   6.322  -8.086  0.00  0.00    +0.003 A 
ATOM      7  C   UNL     1       3.155   5.553  -9.110  0.00  0.00    +0.001 A 
ATOM      8  C   UNL     1       2.636   4.293  -8.840  0.00  0.00    +0.003 A 
ATOM      9  C   UNL     1       2.392   3.940  -7.527  0.00  0.00    +0.037 A 
BRANCH   4  10
ATOM     10  O   UNL     1       2.056   4.731  -5.282  0.00  0.00    -0.474 OA
BRANCH  10  11
ATOM     11  C   UNL     1       1.540   5.864  -4.635  0.00  0.00    +0.223 C 
BRANCH  11  12
ATOM     12  C   UNL     1       0.301   6.410  -5.294  0.00  0.00    +0.120 C 
BRANCH  12  13
ATOM     13  N   UNL     1      -0.918   5.822  -4.786  0.00  0.00    -0.270 NA
BRANCH  13  15
ATOM     14  C   UNL     1      -1.106   5.320  -7.133  0.00  0.00    +0.019 C 
ATOM     15  C   UNL     1      -1.872   5.612  -5.868  0.00  0.00    +0.072 C 
ENDBRANCH  13  15
BRANCH  13  16
ATOM     16  C   UNL     1      -1.550   6.777  -3.879  0.00  0.00    +0.072 C 
ATOM     17  C   UNL     1      -1.798   8.104  -4.570  0.00  0.00    +0.019 C 
ENDBRANCH  13  16
ENDBRANCH  12  13
ENDBRANCH  11  12
ENDBRANCH  10  11
ENDBRANCH   4  10
ENDBRANCH   1   7
BRANCH   2  18
ATOM     18  C   UNL     1       1.938   6.206 -12.563  0.00  0.00    +0.011 A 
ATOM     19  C   UNL     1       1.502   7.248 -13.370  0.00  0.00    +0.001 A 
ATOM     20  C   UNL     1       0.886   6.987 -14.589  0.00  0.00    +0.000 A 
ATOM     21  C   UNL     1       0.350   5.725 -14.810  0.00  0.00    +0.000 A 
ATOM     22  C   UNL     1       1.000   4.675 -14.176  0.00  0.00    +0.000 A 
ATOM     23  C   UNL     1       1.860   4.941 -13.132  0.00  0.00    +0.001 A 
ENDBRANCH   2  18
BRANCH   1  24
ATOM     24  C   UNL     1       4.415   6.381 -11.186  0.00  0.00    +0.001 A 
ATOM     25  C   UNL     1       5.193   5.311 -11.600  0.00  0.00    +0.000 A 
ATOM     26  C   UNL     1       6.564   5.407 -11.759  0.00  0.00    +0.000 A 
ATOM     27  C   UNL     1       7.222   6.521 -11.266  0.00  0.00    +0.000 A 
ATOM     28  C   UNL     1       6.473   7.650 -11.008  0.00  0.00    +0.000 A 
ATOM     29  C   UNL     1       5.088   7.580 -10.999  0.00  0.00    +0.000 A 
ENDBRANCH   1  24
TORSDOF 9
ENDMDL
MODEL 7
REMARK VINA RESULT:      -7.3      3.213      8.043
REMARK  Name = 
REMARK  9 active torsions:
REMARK  status: ('A' for Active; 'I' for Inactive)
REMARK    1  A    between atoms: C_2  and  N_3
REMARK    2  A    between atoms: N_3  and  C_4
REMARK    3  A    between atoms: N_3  and  C_6
REMARK    4  A    between atoms: C_6  and  C_7
REMARK    5  A    between atoms: C_7  and  O_8
REMARK    6  A    between atoms: O_8  and  C_9
REMARK    7  A    between atoms: C_12  and  C_13
REMARK    8  A    between atoms: C_13  and  C_22
REMARK    9  A    between atoms: C_14  and  C_16
REMARK                            x       y       z     vdW  Elec       q    Type
REMARK                         _______ _______ _______ _____ _____    ______ ____
ROOT
ATOM      1  C   UNL     1       2.415   6.429  -5.478  0.00  0.00    +0.011 C 
ATOM      2  C   UNL     1       3.189   6.809  -4.462  0.00  0.00    +0.058 C 
ATOM      3 CL   UNL     1       4.661   7.688  -4.867  0.00  0.00    -0.082 Cl
ENDROOT
BRANCH   1   7
ATOM      4  C   UNL     1       3.554   6.097  -9.556  0.00  0.00    +0.139 A 
ATOM      5  C   UNL     1       4.008   5.223  -8.580  0.00  0.00    +0.037 A 
ATOM      6  C   UNL     1       3.784   5.399  -7.242  0.00  0.00    +0.003 A 
ATOM      7  C   UNL     1       2.922   6.400  -6.856  0.00  0.00    +0.001 A 
ATOM      8  C   UNL     1       2.531   7.370  -7.771  0.00  0.00    +0.003 A 
ATOM      9  C   UNL     1       2.801   7.169  -9.111  0.00  0.00    +0.037 A 
BRANCH   4  10
ATOM     10  O   UNL     1       3.351   5.562 -10.811  0.00  0.00    -0.474 OA
BRANCH  10  11
ATOM     11  C   UNL     1       3.986   5.999 -11.985  0.00  0.00    +0.223 C 
BRANCH  11  12
ATOM     12  C   UNL     1       5.469   5.743 -11.987  0.00  0.00    +0.120 C 
BRANCH  12  13
ATOM     13  N   UNL     1       6.248   6.921 -12.296  0.00  0.00    -0.270 NA
BRANCH  13  15
ATOM     14  C   UNL     1       7.210   5.468 -13.957  0.00  0.00    +0.019 C 
ATOM     15  C   UNL     1       7.498   6.551 -12.948  0.00  0.00    +0.072 C 
ENDBRANCH  13  15
BRANCH  13  16
ATOM     16  C   UNL     1       6.630   7.566 -11.042  0.00  0.00    +0.072 C 
ATOM     17  C   UNL     1       7.530   6.665 -10.218  0.00  0.00    +0.019 C 
ENDBRANCH  13  16
ENDBRANCH  12  13
ENDBRANCH  11  12
ENDBRANCH  10  11
ENDBRANCH   4  10
ENDBRANCH   1   7
BRANCH   2  18
ATOM     18  C   UNL     1       3.001   6.188  -3.144  0.00  0.00    +0.011 A 
ATOM     19  C   UNL     1       2.658   6.975  -2.052  0.00  0.00    +0.001 A 
ATOM     20  C   UNL     1       2.998   6.580  -0.764  0.00  0.00    +0.000 A 
ATOM     21  C   UNL     1       4.009   5.642  -0.597  0.00  0.00    +0.000 A 
ATOM     22  C   UNL     1       4.135   4.705  -1.613  0.00  0.00    +0.000 A 
ATOM     23  C   UNL     1       3.543   4.947  -2.835  0.00  0.00    +0.001 A 
ENDBRANCH   2  18
BRANCH   1  24
ATOM     24  C   UNL     1       1.008   6.156  -5.165  0.00  0.00    +0.001 A 
ATOM     25  C   UNL     1       0.415   5.065  -5.782  0.00  0.00    +0.000 A 
ATOM     26  C   UNL     1      -0.945   4.998  -6.027  0.00  0.00    +0.000 A 
ATOM     27  C   UNL     1      -1.713   6.140  -5.875  0.00  0.00    +0.000 A 
ATOM     28  C   UNL     1      -1.194   7.169  -5.118  0.00  0.00    +0.000 A 
ATOM     29  C   UNL     1       0.142   7.156  -4.746  0.00  0.00    +0.000 A 
ENDBRANCH   1  24
TORSDOF 9
ENDMDL
MODEL 8
REMARK VINA RESULT:      -7.0      2.981      7.660
REMARK  Name = 
REMARK  9 active torsions:
REMARK  status: ('A' for Active; 'I' for Inactive)
REMARK    1  A    between atoms: C_2  and  N_3
REMARK    2  A    between atoms: N_3  and  C_4
REMARK    3  A    between atoms: N_3  and  C_6
REMARK    4  A    between atoms: C_6  and  C_7
REMARK    5  A    between atoms: C_7  and  O_8
REMARK    6  A    between atoms: O_8  and  C_9
REMARK    7  A    between atoms: C_12  and  C_13
REMARK    8  A    between atoms: C_13  and  C_22
REMARK    9  A    between atoms: C_14  and  C_16
REMARK                            x       y       z     vdW  Elec       q    Type
REMARK                         _______ _______ _______ _____ _____    ______ ____
ROOT
ATOM      1  C   UNL     1       1.405   6.280  -4.829  0.00  0.00    +0.011 C 
ATOM      2  C   UNL     1       2.528   6.736  -4.273  0.00  0.00    +0.058 C 
ATOM      3 CL   UNL     1       3.892   7.020  -5.350  0.00  0.00    -0.082 Cl
ENDROOT
BRANCH   1   7
ATOM      4  C   UNL     1       1.762   4.780  -8.787  0.00  0.00    +0.139 A 
ATOM      5  C   UNL     1       1.094   5.958  -8.492  0.00  0.00    +0.037 A 
ATOM      6  C   UNL     1       0.829   6.381  -7.218  0.00  0.00    +0.003 A 
ATOM      7  C   UNL     1       1.404   5.691  -6.174  0.00  0.00    +0.001 A 
ATOM      8  C   UNL     1       1.982   4.448  -6.400  0.00  0.00    +0.003 A 
ATOM      9  C   UNL     1       2.207   4.044  -7.702  0.00  0.00    +0.037 A 
BRANCH   4  10
ATOM     10  O   UNL     1       2.433   4.740  -9.991  0.00  0.00    -0.474 OA
BRANCH  10  11
ATOM     11  C   UNL     1       2.324   5.704 -11.005  0.00  0.00    +0.223 C 
BRANCH  11  12
ATOM     12  C   UNL     1       3.648   6.301 -11.402  0.00  0.00    +0.120 C 
BRANCH  12  13
ATOM     13  N   UNL     1       4.778   5.504 -10.982  0.00  0.00    -0.270 NA
BRANCH  13  15
ATOM     14  C   UNL     1       5.572   5.287  -8.720  0.00  0.00    +0.019 C 
ATOM     15  C   UNL     1       5.521   6.186  -9.929  0.00  0.00    +0.072 C 
ENDBRANCH  13  15
BRANCH  13  16
ATOM     16  C   UNL     1       5.703   5.384 -12.106  0.00  0.00    +0.072 C 
ATOM     17  C   UNL     1       4.954   5.165 -13.407  0.00  0.00    +0.019 C 
ENDBRANCH  13  16
ENDBRANCH  12  13
ENDBRANCH  11  12
ENDBRANCH  10  11
ENDBRANCH   4  10
ENDBRANCH   1   7
BRANCH   2  18
ATOM     18  C   UNL     1       2.705   6.628  -2.819  0.00  0.00    +0.011 A 
ATOM     19  C   UNL     1       3.120   7.735  -2.089  0.00  0.00    +0.001 A 
ATOM     20  C   UNL     1       3.809   7.573  -0.893  0.00  0.00    +0.000 A 
ATOM     21  C   UNL     1       4.427   6.356  -0.637  0.00  0.00    +0.000 A 
ATOM     22  C   UNL     1       3.808   5.239  -1.181  0.00  0.00    +0.000 A 
ATOM     23  C   UNL     1       2.883   5.402  -2.191  0.00  0.00    +0.001 A 
ENDBRANCH   2  18
BRANCH   1  24
ATOM     24  C   UNL     1       0.164   6.502  -4.079  0.00  0.00    +0.001 A 
ATOM     25  C   UNL     1      -0.451   5.394  -3.517  0.00  0.00    +0.000 A 
ATOM     26  C   UNL     1      -1.814   5.341  -3.282  0.00  0.00    +0.000 A 
ATOM     27  C   UNL     1      -2.631   6.311  -3.836  0.00  0.00    +0.000 A 
ATOM     28  C   UNL     1      -2.044   7.490  -4.246  0.00  0.00    +0.000 A 
ATOM     29  C   UNL     1      -0.663   7.587  -4.336  0.00  0.00    +0.000 A 
ENDBRANCH   1  24
TORSDOF 9
ENDMDL
MODEL 9
REMARK VINA RESULT:      -6.9      3.019      7.765
REMARK  Name = 
REMARK  9 active torsions:
REMARK  status: ('A' for Active; 'I' for Inactive)
REMARK    1  A    between atoms: C_2  and  N_3
REMARK    2  A    between atoms: N_3  and  C_4
REMARK    3  A    between atoms: N_3  and  C_6
REMARK    4  A    between atoms: C_6  and  C_7
REMARK    5  A    between atoms: C_7  and  O_8
REMARK    6  A    between atoms: O_8  and  C_9
REMARK    7  A    between atoms: C_12  and  C_13
REMARK    8  A    between atoms: C_13  and  C_22
REMARK    9  A    between atoms: C_14  and  C_16
REMARK                            x       y       z     vdW  Elec       q    Type
REMARK                         _______ _______ _______ _____ _____    ______ ____
ROOT
ATOM      1  C   UNL     1       1.978   6.166  -5.934  0.00  0.00    +0.011 C 
ATOM      2  C   UNL     1       0.680   5.867  -5.924  0.00  0.00    +0.058 C 
ATOM      3 CL   UNL     1      -0.003   5.234  -7.419  0.00  0.00    -0.082 Cl
ENDROOT
BRANCH   1   7
ATOM      4  C   UNL     1       3.792   6.426  -9.766  0.00  0.00    +0.139 A 
ATOM      5  C   UNL     1       4.015   5.362  -8.905  0.00  0.00    +0.037 A 
ATOM      6  C   UNL     1       3.571   5.330  -7.611  0.00  0.00    +0.003 A 
ATOM      7  C   UNL     1       2.716   6.325  -7.194  0.00  0.00    +0.001 A 
ATOM      8  C   UNL     1       2.552   7.467  -7.968  0.00  0.00    +0.003 A 
ATOM      9  C   UNL     1       3.039   7.472  -9.261  0.00  0.00    +0.037 A 
BRANCH   4  10
ATOM     10  O   UNL     1       3.780   6.132 -11.113  0.00  0.00    -0.474 OA
BRANCH  10  11
ATOM     11  C   UNL     1       2.728   5.494 -11.789  0.00  0.00    +0.223 C 
BRANCH  11  12
ATOM     12  C   UNL     1       2.254   6.252 -12.999  0.00  0.00    +0.120 C 
BRANCH  12  13
ATOM     13  N   UNL     1       0.833   6.518 -12.982  0.00  0.00    -0.270 NA
BRANCH  13  15
ATOM     14  C   UNL     1       1.293   7.226 -15.236  0.00  0.00    +0.019 C 
ATOM     15  C   UNL     1       0.486   7.508 -13.994  0.00  0.00    +0.072 C 
ENDBRANCH  13  15
BRANCH  13  16
ATOM     16  C   UNL     1       0.491   7.125 -11.698  0.00  0.00    +0.072 C 
ATOM     17  C   UNL     1      -1.007   7.324 -11.572  0.00  0.00    +0.019 C 
ENDBRANCH  13  16
ENDBRANCH  12  13
ENDBRANCH  11  12
ENDBRANCH  10  11
ENDBRANCH   4  10
ENDBRANCH   1   7
BRANCH   2  18
ATOM     18  C   UNL     1      -0.173   6.400  -4.853  0.00  0.00    +0.011 A 
ATOM     19  C   UNL     1      -0.732   5.537  -3.919  0.00  0.00    +0.001 A 
ATOM     20  C   UNL     1      -1.916   5.868  -3.273  0.00  0.00    +0.000 A 
ATOM     21  C   UNL     1      -2.738   6.836  -3.837  0.00  0.00    +0.000 A 
ATOM     22  C   UNL     1      -2.089   7.836  -4.549  0.00  0.00    +0.000 A 
ATOM     23  C   UNL     1      -0.786   7.642  -4.955  0.00  0.00    +0.001 A 
ENDBRANCH   2  18
BRANCH   1  24
ATOM     24  C   UNL     1       2.652   6.214  -4.631  0.00  0.00    +0.001 A 
ATOM     25  C   UNL     1       3.316   7.384  -4.297  0.00  0.00    +0.000 A 
ATOM     26  C   UNL     1       4.394   7.404  -3.430  0.00  0.00    +0.000 A 
ATOM     27  C   UNL     1       4.989   6.208  -3.067  0.00  0.00    +0.000 A 
ATOM     28  C   UNL     1       4.263   5.048  -3.244  0.00  0.00    +0.000 A 
ATOM     29  C   UNL     1       3.095   5.064  -3.992  0.00  0.00    +0.000 A 
ENDBRANCH   1  24
TORSDOF 9
ENDMDL
