MODEL 1
REMARK VINA RESULT:      -8.4      0.000      0.000
REMARK  Name = 
REMARK  2 active torsions:
REMARK  status: ('A' for Active; 'I' for Inactive)
REMARK    1  A    between atoms: C_6  and  N_7
REMARK    2  A    between atoms: C_20  and  C_21
REMARK                            x       y       z     vdW  Elec       q    Type
REMARK                         _______ _______ _______ _____ _____    ______ ____
ROOT
ATOM      1  C   UNL     1       2.486   7.233  -4.216  0.00  0.00    +0.028 C 
ATOM      2  C   UNL     1       3.037   5.677  -4.397  0.00  0.00    +0.129 C 
ATOM      3  N   UNL     1       2.282   5.461  -5.772  0.00  0.00    -0.321 N 
ATOM      4  C   UNL     1       1.018   5.767  -5.874  0.00  0.00    +0.099 A 
ATOM      5  C   UNL     1       0.462   5.653  -7.146  0.00  0.00    +0.060 A 
ATOM      6  C   UNL     1       1.244   5.549  -8.268  0.00  0.00    +0.205 A 
ATOM      7  C   UNL     1       2.602   5.319  -8.101  0.00  0.00    +0.136 A 
ATOM      8  O   UNL     1       0.745   5.328  -9.392  0.00  0.00    -0.286 OA
ATOM      9  C   UNL     1      -0.888   5.372  -7.321  0.00  0.00    +0.036 A 
ATOM     10  C   UNL     1      -1.772   5.677  -6.326  0.00  0.00    +0.157 A 
ATOM     11  F   UNL     1      -3.097   5.505  -6.520  0.00  0.00    -0.203 F 
ATOM     12  C   UNL     1      -1.235   5.928  -5.081  0.00  0.00    +0.112 A 
ATOM     13  C   UNL     1       0.134   6.019  -4.857  0.00  0.00    +0.170 A 
ATOM     14  O   UNL     1       0.697   5.790  -3.599  0.00  0.00    -0.471 OA
ATOM     15  C   UNL     1       3.132   5.292  -6.817  0.00  0.00    +0.086 A 
ATOM     16  C   UNL     1       1.824   4.999  -3.496  0.00  0.00    +0.228 C 
ENDROOT
BRANCH  12  17
ATOM     17  N   UNL     1      -2.070   6.349  -4.024  0.00  0.00    -0.301 N 
ATOM     18  C   UNL     1      -2.080   7.667  -3.466  0.00  0.00    +0.108 C 
ATOM     19  C   UNL     1      -2.077   7.732  -1.983  0.00  0.00    +0.094 C 
ATOM     20  N   UNL     1      -1.815   6.536  -1.287  0.00  0.00    -0.269 NA
ATOM     21  C   UNL     1      -0.605   6.493  -0.531  0.00  0.00    +0.090 C 
ATOM     22  C   UNL     1      -2.293   5.321  -1.806  0.00  0.00    +0.094 C 
ATOM     23  C   UNL     1      -2.711   5.305  -3.238  0.00  0.00    +0.108 C 
ENDBRANCH  12  17
BRANCH   7  24
ATOM     24  C   UNL     1       3.398   4.777  -9.210  0.00  0.00    +0.392 C 
ATOM     25  O   UNL     1       3.895   5.591 -10.223  0.00  0.00    -0.240 OA
ATOM     26  O   UNL     1       3.945   3.666  -9.066  0.00  0.00    -0.240 OA
ENDBRANCH   7  24
TORSDOF 2
ENDMDL
MODEL 2
REMARK VINA RESULT:      -8.3      3.009      5.336
REMARK  Name = 
REMARK  2 active torsions:
REMARK  status: ('A' for Active; 'I' for Inactive)
REMARK    1  A    between atoms: C_6  and  N_7
REMARK    2  A    between atoms: C_20  and  C_21
REMARK                            x       y       z     vdW  Elec       q    Type
REMARK                         _______ _______ _______ _____ _____    ______ ____
ROOT
ATOM      1  C   UNL     1       0.446   4.544 -11.306  0.00  0.00    +0.028 C 
ATOM      2  C   UNL     1       0.828   5.967 -12.072  0.00  0.00    +0.129 C 
ATOM      3  N   UNL     1       2.316   5.976 -11.535  0.00  0.00    -0.321 N 
ATOM      4  C   UNL     1       2.550   5.787 -10.265  0.00  0.00    +0.099 A 
ATOM      5  C   UNL     1       3.889   5.697  -9.896  0.00  0.00    +0.060 A 
ATOM      6  C   UNL     1       4.880   5.491 -10.822  0.00  0.00    +0.205 A 
ATOM      7  C   UNL     1       4.556   5.611 -12.166  0.00  0.00    +0.136 A 
ATOM      8  O   UNL     1       6.088   5.531 -10.504  0.00  0.00    -0.286 OA
ATOM      9  C   UNL     1       4.316   6.074  -8.628  0.00  0.00    +0.036 A 
ATOM     10  C   UNL     1       3.427   6.067  -7.591  0.00  0.00    +0.157 A 
ATOM     11  F   UNL     1       3.847   6.331  -6.335  0.00  0.00    -0.203 F 
ATOM     12  C   UNL     1       2.090   6.020  -7.927  0.00  0.00    +0.112 A 
ATOM     13  C   UNL     1       1.649   5.837  -9.233  0.00  0.00    +0.170 A 
ATOM     14  O   UNL     1       0.384   6.257  -9.655  0.00  0.00    -0.471 OA
ATOM     15  C   UNL     1       3.234   5.842 -12.526  0.00  0.00    +0.086 A 
ATOM     16  C   UNL     1       0.262   6.934 -10.853  0.00  0.00    +0.228 C 
ENDROOT
BRANCH  12  17
ATOM     17  N   UNL     1       1.112   5.909  -6.917  0.00  0.00    -0.301 N 
ATOM     18  C   UNL     1       0.453   7.017  -6.293  0.00  0.00    +0.108 C 
ATOM     19  C   UNL     1       0.362   6.953  -4.812  0.00  0.00    +0.094 C 
ATOM     20  N   UNL     1       1.131   5.969  -4.162  0.00  0.00    -0.269 NA
ATOM     21  C   UNL     1       2.183   6.438  -3.319  0.00  0.00    +0.090 C 
ATOM     22  C   UNL     1       1.310   4.719  -4.779  0.00  0.00    +0.094 C 
ATOM     23  C   UNL     1       1.010   4.626  -6.237  0.00  0.00    +0.108 C 
ENDBRANCH  12  17
BRANCH   7  24
ATOM     24  C   UNL     1       5.613   5.833 -13.161  0.00  0.00    +0.392 C 
ATOM     25  O   UNL     1       6.239   7.068 -13.303  0.00  0.00    -0.240 OA
ATOM     26  O   UNL     1       6.214   4.845 -13.626  0.00  0.00    -0.240 OA
ENDBRANCH   7  24
TORSDOF 2
ENDMDL
MODEL 3
REMARK VINA RESULT:      -8.2      2.558      6.477
REMARK  Name = 
REMARK  2 active torsions:
REMARK  status: ('A' for Active; 'I' for Inactive)
REMARK    1  A    between atoms: C_6  and  N_7
REMARK    2  A    between atoms: C_20  and  C_21
REMARK                            x       y       z     vdW  Elec       q    Type
REMARK                         _______ _______ _______ _____ _____    ______ ____
ROOT
ATOM      1  C   UNL     1       4.399   5.042  -4.071  0.00  0.00    +0.028 C 
ATOM      2  C   UNL     1       4.079   6.587  -3.551  0.00  0.00    +0.129 C 
ATOM      3  N   UNL     1       2.530   6.315  -3.372  0.00  0.00    -0.321 N 
ATOM      4  C   UNL     1       1.853   5.751  -4.335  0.00  0.00    +0.099 A 
ATOM      5  C   UNL     1       0.525   5.446  -4.051  0.00  0.00    +0.060 A 
ATOM      6  C   UNL     1       0.047   5.430  -2.765  0.00  0.00    +0.205 A 
ATOM      7  C   UNL     1       0.848   5.955  -1.762  0.00  0.00    +0.136 A 
ATOM      8  O   UNL     1      -1.170   5.273  -2.524  0.00  0.00    -0.286 OA
ATOM      9  C   UNL     1      -0.437   5.407  -5.054  0.00  0.00    +0.036 A 
ATOM     10  C   UNL     1      -0.053   5.182  -6.345  0.00  0.00    +0.157 A 
ATOM     11  F   UNL     1      -0.982   5.039  -7.314  0.00  0.00    -0.203 F 
ATOM     12  C   UNL     1       1.287   5.346  -6.625  0.00  0.00    +0.112 A 
ATOM     13  C   UNL     1       2.239   5.582  -5.639  0.00  0.00    +0.170 A 
ATOM     14  O   UNL     1       3.456   6.211  -5.916  0.00  0.00    -0.471 OA
ATOM     15  C   UNL     1       2.129   6.391  -2.077  0.00  0.00    +0.086 A 
ATOM     16  C   UNL     1       3.907   7.210  -5.076  0.00  0.00    +0.228 C 
ENDROOT
BRANCH  12  17
ATOM     17  N   UNL     1       1.783   5.036  -7.909  0.00  0.00    -0.301 N 
ATOM     18  C   UNL     1       2.492   3.838  -8.243  0.00  0.00    +0.108 C 
ATOM     19  C   UNL     1       3.720   4.029  -9.056  0.00  0.00    +0.094 C 
ATOM     20  N   UNL     1       4.197   5.346  -9.201  0.00  0.00    -0.269 NA
ATOM     21  C   UNL     1       5.462   5.633  -8.604  0.00  0.00    +0.090 C 
ATOM     22  C   UNL     1       3.276   6.403  -9.297  0.00  0.00    +0.094 C 
ATOM     23  C   UNL     1       1.876   6.133  -8.861  0.00  0.00    +0.108 C 
ENDBRANCH  12  17
BRANCH   7  24
ATOM     24  C   UNL     1       0.253   6.361  -0.482  0.00  0.00    +0.392 C 
ATOM     25  O   UNL     1       0.970   6.308   0.710  0.00  0.00    -0.240 OA
ATOM     26  O   UNL     1      -0.753   7.095  -0.497  0.00  0.00    -0.240 OA
ENDBRANCH   7  24
TORSDOF 2
ENDMDL
MODEL 4
REMARK VINA RESULT:      -8.0      3.294      6.490
REMARK  Name = 
REMARK  2 active torsions:
REMARK  status: ('A' for Active; 'I' for Inactive)
REMARK    1  A    between atoms: C_6  and  N_7
REMARK    2  A    between atoms: C_20  and  C_21
REMARK                            x       y       z     vdW  Elec       q    Type
REMARK                         _______ _______ _______ _____ _____    ______ ____
ROOT
ATOM      1  C   UNL     1       4.356   4.323  -8.994  0.00  0.00    +0.028 C 
ATOM      2  C   UNL     1       4.849   5.764  -8.332  0.00  0.00    +0.129 C 
ATOM      3  N   UNL     1       3.779   5.712  -7.167  0.00  0.00    -0.321 N 
ATOM      4  C   UNL     1       2.528   5.467  -7.445  0.00  0.00    +0.099 A 
ATOM      5  C   UNL     1       1.676   5.327  -6.352  0.00  0.00    +0.060 A 
ATOM      6  C   UNL     1       2.156   5.131  -5.082  0.00  0.00    +0.205 A 
ATOM      7  C   UNL     1       3.514   5.312  -4.861  0.00  0.00    +0.136 A 
ATOM      8  O   UNL     1       1.395   5.126  -4.091  0.00  0.00    -0.286 OA
ATOM      9  C   UNL     1       0.325   5.642  -6.446  0.00  0.00    +0.036 A 
ATOM     10  C   UNL     1      -0.287   5.618  -7.666  0.00  0.00    +0.157 A 
ATOM     11  F   UNL     1      -1.619   5.821  -7.761  0.00  0.00    -0.203 F 
ATOM     12  C   UNL     1       0.540   5.620  -8.769  0.00  0.00    +0.112 A 
ATOM     13  C   UNL     1       1.922   5.500  -8.673  0.00  0.00    +0.170 A 
ATOM     14  O   UNL     1       2.779   5.970  -9.672  0.00  0.00    -0.471 OA
ATOM     15  C   UNL     1       4.345   5.593  -5.939  0.00  0.00    +0.086 A 
ATOM     16  C   UNL     1       3.898   6.697  -9.316  0.00  0.00    +0.228 C 
ENDROOT
BRANCH  12  17
ATOM     17  N   UNL     1      -0.009   5.496 -10.063  0.00  0.00    -0.301 N 
ATOM     18  C   UNL     1       0.096   4.329 -10.886  0.00  0.00    +0.108 C 
ATOM     19  C   UNL     1       0.472   4.579 -12.301  0.00  0.00    +0.094 C 
ATOM     20  N   UNL     1       0.926   5.871 -12.627  0.00  0.00    -0.269 NA
ATOM     21  C   UNL     1       2.288   5.981 -13.040  0.00  0.00    +0.090 C 
ATOM     22  C   UNL     1       0.357   6.982 -11.982  0.00  0.00    +0.094 C 
ATOM     23  C   UNL     1      -0.409   6.727 -10.728  0.00  0.00    +0.108 C 
ENDBRANCH  12  17
BRANCH   7  24
ATOM     24  C   UNL     1       4.013   5.545  -3.499  0.00  0.00    +0.392 C 
ATOM     25  O   UNL     1       4.088   4.521  -2.560  0.00  0.00    -0.240 OA
ATOM     26  O   UNL     1       4.712   6.554  -3.283  0.00  0.00    -0.240 OA
ENDBRANCH   7  24
TORSDOF 2
ENDMDL
MODEL 5
REMARK VINA RESULT:      -8.0      3.199      5.627
REMARK  Name = 
REMARK  2 active torsions:
REMARK  status: ('A' for Active; 'I' for Inactive)
REMARK    1  A    between atoms: C_6  and  N_7
REMARK    2  A    between atoms: C_20  and  C_21
REMARK                            x       y       z     vdW  Elec       q    Type
REMARK                         _______ _______ _______ _____ _____    ______ ____
ROOT
ATOM      1  C   UNL     1       5.098   7.577 -10.799  0.00  0.00    +0.028 C 
ATOM      2  C   UNL     1       5.391   6.138 -11.575  0.00  0.00    +0.129 C 
ATOM      3  N   UNL     1       3.871   5.696 -11.547  0.00  0.00    -0.321 N 
ATOM      4  C   UNL     1       3.197   5.759 -10.431  0.00  0.00    +0.099 A 
ATOM      5  C   UNL     1       1.840   5.460 -10.519  0.00  0.00    +0.060 A 
ATOM      6  C   UNL     1       1.185   5.425 -11.724  0.00  0.00    +0.205 A 
ATOM      7  C   UNL     1       1.947   5.457 -12.884  0.00  0.00    +0.136 A 
ATOM      8  O   UNL     1      -0.001   5.040 -11.811  0.00  0.00    -0.286 OA
ATOM      9  C   UNL     1       1.147   4.927  -9.438  0.00  0.00    +0.036 A 
ATOM     10  C   UNL     1       1.615   5.133  -8.172  0.00  0.00    +0.157 A 
ATOM     11  F   UNL     1       0.900   4.710  -7.108  0.00  0.00    -0.203 F 
ATOM     12  C   UNL     1       2.921   5.561  -8.062  0.00  0.00    +0.112 A 
ATOM     13  C   UNL     1       3.693   5.915  -9.163  0.00  0.00    +0.170 A 
ATOM     14  O   UNL     1       5.089   5.878  -9.133  0.00  0.00    -0.471 OA
ATOM     15  C   UNL     1       3.324   5.615 -12.786  0.00  0.00    +0.086 A 
ATOM     16  C   UNL     1       5.774   5.314 -10.192  0.00  0.00    +0.228 C 
ENDROOT
BRANCH  12  17
ATOM     17  N   UNL     1       3.449   5.893  -6.796  0.00  0.00    -0.301 N 
ATOM     18  C   UNL     1       4.038   4.958  -5.886  0.00  0.00    +0.108 C 
ATOM     19  C   UNL     1       3.596   5.078  -4.474  0.00  0.00    +0.094 C 
ATOM     20  N   UNL     1       2.485   5.904  -4.216  0.00  0.00    -0.269 NA
ATOM     21  C   UNL     1       1.308   5.254  -3.734  0.00  0.00    +0.090 C 
ATOM     22  C   UNL     1       2.309   7.075  -4.971  0.00  0.00    +0.094 C 
ATOM     23  C   UNL     1       3.076   7.188  -6.246  0.00  0.00    +0.108 C 
ENDBRANCH  12  17
BRANCH   7  24
ATOM     24  C   UNL     1       1.372   4.995 -14.154  0.00  0.00    +0.392 C 
ATOM     25  O   UNL     1       0.939   5.886 -15.131  0.00  0.00    -0.240 OA
ATOM     26  O   UNL     1       1.603   3.828 -14.525  0.00  0.00    -0.240 OA
ENDBRANCH   7  24
TORSDOF 2
ENDMDL
MODEL 6
REMARK VINA RESULT:      -7.9      2.586      6.505
REMARK  Name = 
REMARK  2 active torsions:
REMARK  status: ('A' for Active; 'I' for Inactive)
REMARK    1  A    between atoms: C_6  and  N_7
REMARK    2  A    between atoms: C_20  and  C_21
REMARK                            x       y       z     vdW  Elec       q    Type
REMARK                         _______ _______ _______ _____ _____    ______ ____
ROOT
ATOM      1  C   UNL     1       3.465   5.035  -3.238  0.00  0.00    +0.028 C 
ATOM      2  C   UNL     1       2.905   6.466  -2.608  0.00  0.00    +0.129 C 
ATOM      3  N   UNL     1       1.466   6.302  -3.245  0.00  0.00    -0.321 N 
ATOM      4  C   UNL     1       1.345   6.005  -4.510  0.00  0.00    +0.099 A 
ATOM      5  C   UNL     1       0.049   5.767  -4.961  0.00  0.00    +0.060 A 
ATOM      6  C   UNL     1      -0.986   5.535  -4.093  0.00  0.00    +0.205 A 
ATOM      7  C   UNL     1      -0.775   5.776  -2.743  0.00  0.00    +0.136 A 
ATOM      8  O   UNL     1      -2.166   5.442  -4.494  0.00  0.00    -0.286 OA
ATOM      9  C   UNL     1      -0.312   6.015  -6.281  0.00  0.00    +0.036 A 
ATOM     10  C   UNL     1       0.649   6.019  -7.251  0.00  0.00    +0.157 A 
ATOM     11  F   UNL     1       0.302   6.156  -8.549  0.00  0.00    -0.203 F 
ATOM     12  C   UNL     1       1.956   6.118  -6.822  0.00  0.00    +0.112 A 
ATOM     13  C   UNL     1       2.312   6.067  -5.479  0.00  0.00    +0.170 A 
ATOM     14  O   UNL     1       3.501   6.629  -5.004  0.00  0.00    -0.471 OA
ATOM     15  C   UNL     1       0.492   6.152  -2.312  0.00  0.00    +0.086 A 
ATOM     16  C   UNL     1       3.474   7.395  -3.855  0.00  0.00    +0.228 C 
ENDROOT
BRANCH  12  17
ATOM     17  N   UNL     1       3.012   6.029  -7.752  0.00  0.00    -0.301 N 
ATOM     18  C   UNL     1       3.471   7.109  -8.573  0.00  0.00    +0.108 C 
ATOM     19  C   UNL     1       3.691   6.774 -10.003  0.00  0.00    +0.094 C 
ATOM     20  N   UNL     1       3.201   5.534 -10.456  0.00  0.00    -0.269 NA
ATOM     21  C   UNL     1       2.144   5.581 -11.415  0.00  0.00    +0.090 C 
ATOM     22  C   UNL     1       3.240   4.424  -9.596  0.00  0.00    +0.094 C 
ATOM     23  C   UNL     1       3.435   4.691  -8.141  0.00  0.00    +0.108 C 
ENDBRANCH  12  17
BRANCH   7  24
ATOM     24  C   UNL     1      -1.919   5.968  -1.842  0.00  0.00    +0.392 C 
ATOM     25  O   UNL     1      -2.501   7.218  -1.650  0.00  0.00    -0.240 OA
ATOM     26  O   UNL     1      -2.607   4.977  -1.531  0.00  0.00    -0.240 OA
ENDBRANCH   7  24
TORSDOF 2
ENDMDL
MODEL 7
REMARK VINA RESULT:      -7.8      2.991      7.156
REMARK  Name = 
REMARK  2 active torsions:
REMARK  status: ('A' for Active; 'I' for Inactive)
REMARK    1  A    between atoms: C_6  and  N_7
REMARK    2  A    between atoms: C_20  and  C_21
REMARK                            x       y       z     vdW  Elec       q    Type
REMARK                         _______ _______ _______ _____ _____    ______ ____
ROOT
ATOM      1  C   UNL     1      -0.243   7.180  -5.526  0.00  0.00    +0.028 C 
ATOM      2  C   UNL     1      -0.528   5.706  -4.815  0.00  0.00    +0.129 C 
ATOM      3  N   UNL     1       0.968   5.539  -4.324  0.00  0.00    -0.321 N 
ATOM      4  C   UNL     1       1.951   5.729  -5.161  0.00  0.00    +0.099 A 
ATOM      5  C   UNL     1       3.233   5.673  -4.620  0.00  0.00    +0.060 A 
ATOM      6  C   UNL     1       3.449   5.745  -3.267  0.00  0.00    +0.205 A 
ATOM      7  C   UNL     1       2.354   5.633  -2.422  0.00  0.00    +0.136 A 
ATOM      8  O   UNL     1       4.587   5.575  -2.779  0.00  0.00    -0.286 OA
ATOM      9  C   UNL     1       4.324   5.279  -5.387  0.00  0.00    +0.036 A 
ATOM     10  C   UNL     1       4.272   5.409  -6.745  0.00  0.00    +0.157 A 
ATOM     11  F   UNL     1       5.359   5.127  -7.495  0.00  0.00    -0.203 F 
ATOM     12  C   UNL     1       3.023   5.601  -7.297  0.00  0.00    +0.112 A 
ATOM     13  C   UNL     1       1.883   5.804  -6.528  0.00  0.00    +0.170 A 
ATOM     14  O   UNL     1       0.602   5.522  -7.009  0.00  0.00    -0.471 OA
ATOM     15  C   UNL     1       1.081   5.546  -2.972  0.00  0.00    +0.086 A 
ATOM     16  C   UNL     1      -0.287   4.837  -6.204  0.00  0.00    +0.228 C 
ENDROOT
BRANCH  12  17
ATOM     17  N   UNL     1       2.893   5.844  -8.681  0.00  0.00    -0.301 N 
ATOM     18  C   UNL     1       2.838   4.827  -9.688  0.00  0.00    +0.108 C 
ATOM     19  C   UNL     1       3.695   5.061 -10.878  0.00  0.00    +0.094 C 
ATOM     20  N   UNL     1       4.643   6.099 -10.794  0.00  0.00    -0.269 NA
ATOM     21  C   UNL     1       6.016   5.709 -10.827  0.00  0.00    +0.090 C 
ATOM     22  C   UNL     1       4.322   7.266 -10.082  0.00  0.00    +0.094 C 
ATOM     23  C   UNL     1       3.168   7.198  -9.140  0.00  0.00    +0.108 C 
ENDBRANCH  12  17
BRANCH   7  24
ATOM     24  C   UNL     1       2.547   5.270  -1.012  0.00  0.00    +0.392 C 
ATOM     25  O   UNL     1       2.803   6.228  -0.037  0.00  0.00    -0.240 OA
ATOM     26  O   UNL     1       2.123   4.167  -0.616  0.00  0.00    -0.240 OA
ENDBRANCH   7  24
TORSDOF 2
ENDMDL
MODEL 8
REMARK VINA RESULT:      -7.8      2.802      4.639
REMARK  Name = 
REMARK  2 active torsions:
REMARK  status: ('A' for Active; 'I' for Inactive)
REMARK    1  A    between atoms: C_6  and  N_7
REMARK    2  A    between atoms: C_20  and  C_21
REMARK                            x       y       z     vdW  Elec       q    Type
REMARK                         _______ _______ _______ _____ _____    ______ ____
ROOT
ATOM      1  C   UNL     1       4.664   6.915  -9.619  0.00  0.00    +0.028 C 
ATOM      2  C   UNL     1       4.846   5.437 -10.354  0.00  0.00    +0.129 C 
ATOM      3  N   UNL     1       3.347   5.390 -10.860  0.00  0.00    -0.321 N 
ATOM      4  C   UNL     1       2.372   5.637 -10.028  0.00  0.00    +0.099 A 
ATOM      5  C   UNL     1       1.095   5.686 -10.581  0.00  0.00    +0.060 A 
ATOM      6  C   UNL     1       0.897   5.797 -11.933  0.00  0.00    +0.205 A 
ATOM      7  C   UNL     1       1.989   5.620 -12.771  0.00  0.00    +0.136 A 
ATOM      8  O   UNL     1      -0.245   5.720 -12.434  0.00  0.00    -0.286 OA
ATOM      9  C   UNL     1      -0.029   5.359  -9.830  0.00  0.00    +0.036 A 
ATOM     10  C   UNL     1       0.020   5.461  -8.469  0.00  0.00    +0.157 A 
ATOM     11  F   UNL     1      -1.092   5.247  -7.733  0.00  0.00    -0.203 F 
ATOM     12  C   UNL     1       1.274   5.551  -7.903  0.00  0.00    +0.112 A 
ATOM     13  C   UNL     1       2.433   5.683  -8.660  0.00  0.00    +0.170 A 
ATOM     14  O   UNL     1       3.686   5.298  -8.173  0.00  0.00    -0.471 OA
ATOM     15  C   UNL     1       3.247   5.429 -12.213  0.00  0.00    +0.086 A 
ATOM     16  C   UNL     1       4.529   4.564  -8.984  0.00  0.00    +0.228 C 
ENDROOT
BRANCH  12  17
ATOM     17  N   UNL     1       1.409   5.759  -6.515  0.00  0.00    -0.301 N 
ATOM     18  C   UNL     1       1.409   4.721  -5.529  0.00  0.00    +0.108 C 
ATOM     19  C   UNL     1       0.559   4.972  -4.338  0.00  0.00    +0.094 C 
ATOM     20  N   UNL     1      -0.337   6.057  -4.404  0.00  0.00    -0.269 NA
ATOM     21  C   UNL     1      -1.728   5.734  -4.385  0.00  0.00    +0.090 C 
ATOM     22  C   UNL     1       0.044   7.221  -5.091  0.00  0.00    +0.094 C 
ATOM     23  C   UNL     1       1.199   7.116  -6.029  0.00  0.00    +0.108 C 
ENDBRANCH  12  17
BRANCH   7  24
ATOM     24  C   UNL     1       1.783   5.297 -14.189  0.00  0.00    +0.392 C 
ATOM     25  O   UNL     1       1.752   6.284 -15.169  0.00  0.00    -0.240 OA
ATOM     26  O   UNL     1       2.004   4.132 -14.575  0.00  0.00    -0.240 OA
ENDBRANCH   7  24
TORSDOF 2
ENDMDL
MODEL 9
REMARK VINA RESULT:      -7.7      3.904      8.463
REMARK  Name = 
REMARK  2 active torsions:
REMARK  status: ('A' for Active; 'I' for Inactive)
REMARK    1  A    between atoms: C_6  and  N_7
REMARK    2  A    between atoms: C_20  and  C_21
REMARK                            x       y       z     vdW  Elec       q    Type
REMARK                         _______ _______ _______ _____ _____    ______ ____
ROOT
ATOM      1  C   UNL     1       0.797   6.979  -9.760  0.00  0.00    +0.028 C 
ATOM      2  C   UNL     1       0.368   5.464  -9.232  0.00  0.00    +0.129 C 
ATOM      3  N   UNL     1       1.524   5.402  -8.152  0.00  0.00    -0.321 N 
ATOM      4  C   UNL     1       2.749   5.699  -8.493  0.00  0.00    +0.099 A 
ATOM      5  C   UNL     1       3.681   5.729  -7.460  0.00  0.00    +0.060 A 
ATOM      6  C   UNL     1       3.298   5.772  -6.143  0.00  0.00    +0.205 A 
ATOM      7  C   UNL     1       1.963   5.543  -5.842  0.00  0.00    +0.136 A 
ATOM      8  O   UNL     1       4.133   5.678  -5.218  0.00  0.00    -0.286 OA
ATOM      9  C   UNL     1       5.023   5.450  -7.690  0.00  0.00    +0.036 A 
ATOM     10  C   UNL     1       5.539   5.622  -8.942  0.00  0.00    +0.157 A 
ATOM     11  F   UNL     1       6.862   5.454  -9.160  0.00  0.00    -0.203 F 
ATOM     12  C   UNL     1       4.630   5.730  -9.973  0.00  0.00    +0.112 A 
ATOM     13  C   UNL     1       3.258   5.814  -9.760  0.00  0.00    +0.170 A 
ATOM     14  O   UNL     1       2.331   5.446 -10.739  0.00  0.00    -0.471 OA
ATOM     15  C   UNL     1       1.054   5.372  -6.879  0.00  0.00    +0.086 A 
ATOM     16  C   UNL     1       1.249   4.665 -10.384  0.00  0.00    +0.228 C 
ENDROOT
BRANCH  12  17
ATOM     17  N   UNL     1       5.076   6.009 -11.282  0.00  0.00    -0.301 N 
ATOM     18  C   UNL     1       5.404   5.017 -12.262  0.00  0.00    +0.108 C 
ATOM     19  C   UNL     1       6.674   5.243 -12.997  0.00  0.00    +0.094 C 
ATOM     20  N   UNL     1       7.536   6.240 -12.501  0.00  0.00    -0.269 NA
ATOM     21  C   UNL     1       8.794   5.796 -11.992  0.00  0.00    +0.090 C 
ATOM     22  C   UNL     1       6.988   7.403 -11.936  0.00  0.00    +0.094 C 
ATOM     23  C   UNL     1       5.550   7.361 -11.542  0.00  0.00    +0.108 C 
ENDBRANCH  12  17
BRANCH   7  24
ATOM     24  C   UNL     1       1.572   5.150  -4.482  0.00  0.00    +0.392 C 
ATOM     25  O   UNL     1       2.288   5.566  -3.364  0.00  0.00    -0.240 OA
ATOM     26  O   UNL     1       0.406   4.757  -4.285  0.00  0.00    -0.240 OA
ENDBRANCH   7  24
TORSDOF 2
ENDMDL
