MODEL 1
REMARK VINA RESULT:      -7.9      0.000      0.000
REMARK  Name = 
REMARK  4 active torsions:
REMARK  status: ('A' for Active; 'I' for Inactive)
REMARK    1  A    between atoms: C_9  and  O_10
REMARK    2  A    between atoms: O_10  and  C_11
REMARK    3  A    between atoms: C_11  and  C_13
REMARK    4  A    between atoms: C_13  and  C_15
REMARK                            x       y       z     vdW  Elec       q    Type
REMARK                         _______ _______ _______ _____ _____    ______ ____
ROOT
ATOM      1  O   UNL     1       3.740   5.858  -8.771  0.00  0.00    -0.450 OA
ENDROOT
BRANCH   1   6
ATOM      2  C   UNL     1       5.293   5.093 -12.026  0.00  0.00    +0.170 C 
ATOM      3  N   UNL     1       6.051   5.803 -11.842  0.00  0.00    +0.298 N 
ATOM      4  C   UNL     1       5.822   6.805 -10.651  0.00  0.00    +0.062 C 
ATOM      5  C   UNL     1       4.216   6.868 -10.931  0.00  0.00    +0.099 C 
ATOM      6  C   UNL     1       4.478   5.706  -9.921  0.00  0.00    +0.180 C 
ATOM      7  C   UNL     1       5.903   5.654  -9.380  0.00  0.00    +0.099 C 
ATOM      8  C   UNL     1       6.517   8.014 -11.445  0.00  0.00    +0.061 C 
ATOM      9  C   UNL     1       7.544   7.208 -10.566  0.00  0.00    +0.061 C 
ATOM     10  C   UNL     1       7.033   5.615 -10.589  0.00  0.00    +0.062 C 
ATOM     11  C   UNL     1       7.174   5.638 -12.542  0.00  0.00    +0.170 C 
ENDBRANCH   1   6
BRANCH   1  12
ATOM     12  C   UNL     1       3.223   4.785  -8.105  0.00  0.00    +0.352 C 
ATOM     13  O   UNL     1       2.788   3.760  -8.599  0.00  0.00    -0.247 OA
BRANCH  12  14
ATOM     14  C   UNL     1       2.346   5.164  -6.779  0.00  0.00    +0.272 C 
ATOM     15  O   UNL     1       2.411   3.709  -6.305  0.00  0.00    -0.206 OA
BRANCH  14  16
ATOM     16  C   UNL     1       3.666   5.568  -5.894  0.00  0.00    +0.019 A 
ATOM     17  C   UNL     1       3.738   6.946  -5.646  0.00  0.00    -0.001 A 
ATOM     18  C   UNL     1       4.412   7.402  -4.552  0.00  0.00    -0.000 A 
ATOM     19  C   UNL     1       4.981   6.483  -3.684  0.00  0.00    -0.000 A 
ATOM     20  C   UNL     1       4.781   5.138  -3.867  0.00  0.00    -0.000 A 
ATOM     21  C   UNL     1       3.891   4.762  -4.831  0.00  0.00    -0.001 A 
ENDBRANCH  14  16
ENDBRANCH  12  14
ENDBRANCH   1  12
TORSDOF 4
ENDMDL
MODEL 2
REMARK VINA RESULT:      -7.9      2.188      6.150
REMARK  Name = 
REMARK  4 active torsions:
REMARK  status: ('A' for Active; 'I' for Inactive)
REMARK    1  A    between atoms: C_9  and  O_10
REMARK    2  A    between atoms: O_10  and  C_11
REMARK    3  A    between atoms: C_11  and  C_13
REMARK    4  A    between atoms: C_13  and  C_15
REMARK                            x       y       z     vdW  Elec       q    Type
REMARK                         _______ _______ _______ _____ _____    ______ ____
ROOT
ATOM      1  O   UNL     1       2.834   5.049  -8.318  0.00  0.00    -0.450 OA
ENDROOT
BRANCH   1   6
ATOM      2  C   UNL     1       1.462   6.224  -5.104  0.00  0.00    +0.170 C 
ATOM      3  N   UNL     1       2.415   6.145  -4.658  0.00  0.00    +0.298 N 
ATOM      4  C   UNL     1       3.516   5.351  -5.453  0.00  0.00    +0.062 C 
ATOM      5  C   UNL     1       2.420   4.297  -6.044  0.00  0.00    +0.099 C 
ATOM      6  C   UNL     1       2.528   5.485  -7.051  0.00  0.00    +0.180 C 
ATOM      7  C   UNL     1       3.674   6.451  -6.762  0.00  0.00    +0.099 C 
ATOM      8  C   UNL     1       4.136   4.729  -4.110  0.00  0.00    +0.061 C 
ATOM      9  C   UNL     1       4.826   6.085  -4.514  0.00  0.00    +0.061 C 
ATOM     10  C   UNL     1       3.633   7.028  -5.212  0.00  0.00    +0.062 C 
ATOM     11  C   UNL     1       2.596   6.875  -3.557  0.00  0.00    +0.170 C 
ENDBRANCH   1   6
BRANCH   1  12
ATOM     12  C   UNL     1       2.905   5.911  -9.374  0.00  0.00    +0.352 C 
ATOM     13  O   UNL     1       2.009   6.618  -9.802  0.00  0.00    -0.247 OA
BRANCH  12  14
ATOM     14  C   UNL     1       3.824   5.387 -10.621  0.00  0.00    +0.272 C 
ATOM     15  O   UNL     1       3.238   6.475 -11.526  0.00  0.00    -0.206 OA
BRANCH  14  16
ATOM     16  C   UNL     1       5.099   6.336 -10.215  0.00  0.00    +0.019 A 
ATOM     17  C   UNL     1       6.100   5.621  -9.544  0.00  0.00    -0.001 A 
ATOM     18  C   UNL     1       7.391   6.059  -9.590  0.00  0.00    -0.000 A 
ATOM     19  C   UNL     1       7.688   7.190 -10.337  0.00  0.00    -0.000 A 
ATOM     20  C   UNL     1       6.720   7.794 -11.097  0.00  0.00    -0.000 A 
ATOM     21  C   UNL     1       5.517   7.157 -11.204  0.00  0.00    -0.001 A 
ENDBRANCH  14  16
ENDBRANCH  12  14
ENDBRANCH   1  12
TORSDOF 4
ENDMDL
MODEL 3
REMARK VINA RESULT:      -7.7      2.307      2.982
REMARK  Name = 
REMARK  4 active torsions:
REMARK  status: ('A' for Active; 'I' for Inactive)
REMARK    1  A    between atoms: C_9  and  O_10
REMARK    2  A    between atoms: O_10  and  C_11
REMARK    3  A    between atoms: C_11  and  C_13
REMARK    4  A    between atoms: C_13  and  C_15
REMARK                            x       y       z     vdW  Elec       q    Type
REMARK                         _______ _______ _______ _____ _____    ______ ____
ROOT
ATOM      1  O   UNL     1       3.821   5.668  -8.744  0.00  0.00    -0.450 OA
ENDROOT
BRANCH   1   6
ATOM      2  C   UNL     1       5.308   5.114 -12.072  0.00  0.00    +0.170 C 
ATOM      3  N   UNL     1       6.040   5.849 -11.878  0.00  0.00    +0.298 N 
ATOM      4  C   UNL     1       5.802   6.788 -10.638  0.00  0.00    +0.062 C 
ATOM      5  C   UNL     1       4.187   6.790 -10.870  0.00  0.00    +0.099 C 
ATOM      6  C   UNL     1       4.530   5.599  -9.920  0.00  0.00    +0.180 C 
ATOM      7  C   UNL     1       5.972   5.588  -9.422  0.00  0.00    +0.099 C 
ATOM      8  C   UNL     1       6.419   8.060 -11.398  0.00  0.00    +0.061 C 
ATOM      9  C   UNL     1       7.506   7.265 -10.584  0.00  0.00    +0.061 C 
ATOM     10  C   UNL     1       7.065   5.653 -10.662  0.00  0.00    +0.062 C 
ATOM     11  C   UNL     1       7.147   5.765 -12.616  0.00  0.00    +0.170 C 
ENDBRANCH   1   6
BRANCH   1  12
ATOM     12  C   UNL     1       2.545   5.193  -8.648  0.00  0.00    +0.352 C 
ATOM     13  O   UNL     1       2.127   4.132  -9.078  0.00  0.00    -0.247 OA
BRANCH  12  14
ATOM     14  C   UNL     1       1.381   6.332  -8.788  0.00  0.00    +0.272 C 
ATOM     15  O   UNL     1       0.553   5.393  -9.670  0.00  0.00    -0.206 OA
BRANCH  14  16
ATOM     16  C   UNL     1       0.595   5.843  -7.435  0.00  0.00    +0.019 A 
ATOM     17  C   UNL     1       0.832   6.693  -6.347  0.00  0.00    -0.001 A 
ATOM     18  C   UNL     1      -0.084   6.776  -5.341  0.00  0.00    -0.000 A 
ATOM     19  C   UNL     1      -1.255   6.040  -5.439  0.00  0.00    -0.000 A 
ATOM     20  C   UNL     1      -1.531   5.323  -6.575  0.00  0.00    -0.000 A 
ATOM     21  C   UNL     1      -0.693   5.486  -7.639  0.00  0.00    -0.001 A 
ENDBRANCH  14  16
ENDBRANCH  12  14
ENDBRANCH   1  12
TORSDOF 4
ENDMDL
MODEL 4
REMARK VINA RESULT:      -7.5      4.421      7.578
REMARK  Name = 
REMARK  4 active torsions:
REMARK  status: ('A' for Active; 'I' for Inactive)
REMARK    1  A    between atoms: C_9  and  O_10
REMARK    2  A    between atoms: O_10  and  C_11
REMARK    3  A    between atoms: C_11  and  C_13
REMARK    4  A    between atoms: C_13  and  C_15
REMARK                            x       y       z     vdW  Elec       q    Type
REMARK                         _______ _______ _______ _____ _____    ______ ____
ROOT
ATOM      1  O   UNL     1       0.336   5.386  -6.373  0.00  0.00    -0.450 OA
ENDROOT
BRANCH   1   6
ATOM      2  C   UNL     1      -1.574   7.958  -4.548  0.00  0.00    +0.170 C 
ATOM      3  N   UNL     1      -1.915   7.232  -3.863  0.00  0.00    +0.298 N 
ATOM      4  C   UNL     1      -1.701   5.722  -4.251  0.00  0.00    +0.062 C 
ATOM      5  C   UNL     1      -1.946   6.029  -5.834  0.00  0.00    +0.099 C 
ATOM      6  C   UNL     1      -0.419   6.188  -5.550  0.00  0.00    +0.180 C 
ATOM      7  C   UNL     1       0.013   5.717  -4.164  0.00  0.00    +0.099 C 
ATOM      8  C   UNL     1      -3.103   5.286  -3.603  0.00  0.00    +0.061 C 
ATOM      9  C   UNL     1      -1.914   5.188  -2.577  0.00  0.00    +0.061 C 
ATOM     10  C   UNL     1      -0.863   6.433  -2.956  0.00  0.00    +0.062 C 
ATOM     11  C   UNL     1      -2.329   7.702  -2.686  0.00  0.00    +0.170 C 
ENDBRANCH   1   6
BRANCH   1  12
ATOM     12  C   UNL     1       1.358   5.892  -7.124  0.00  0.00    +0.352 C 
ATOM     13  O   UNL     1       1.265   6.436  -8.210  0.00  0.00    -0.247 OA
BRANCH  12  14
ATOM     14  C   UNL     1       2.739   5.020  -7.069  0.00  0.00    +0.272 C 
ATOM     15  O   UNL     1       3.472   6.110  -7.856  0.00  0.00    -0.206 OA
BRANCH  14  16
ATOM     16  C   UNL     1       3.210   5.662  -5.636  0.00  0.00    +0.019 A 
ATOM     17  C   UNL     1       3.886   4.732  -4.834  0.00  0.00    -0.001 A 
ATOM     18  C   UNL     1       4.776   5.168  -3.897  0.00  0.00    -0.000 A 
ATOM     19  C   UNL     1       5.019   6.529  -3.785  0.00  0.00    -0.000 A 
ATOM     20  C   UNL     1       4.453   7.410  -4.671  0.00  0.00    -0.000 A 
ATOM     21  C   UNL     1       3.779   6.885  -5.734  0.00  0.00    -0.001 A 
ENDBRANCH  14  16
ENDBRANCH  12  14
ENDBRANCH   1  12
TORSDOF 4
ENDMDL
MODEL 5
REMARK VINA RESULT:      -7.5      4.551      8.062
REMARK  Name = 
REMARK  4 active torsions:
REMARK  status: ('A' for Active; 'I' for Inactive)
REMARK    1  A    between atoms: C_9  and  O_10
REMARK    2  A    between atoms: O_10  and  C_11
REMARK    3  A    between atoms: C_11  and  C_13
REMARK    4  A    between atoms: C_13  and  C_15
REMARK                            x       y       z     vdW  Elec       q    Type
REMARK                         _______ _______ _______ _____ _____    ______ ____
ROOT
ATOM      1  O   UNL     1       0.307   4.949  -6.793  0.00  0.00    -0.450 OA
ENDROOT
BRANCH   1   6
ATOM      2  C   UNL     1      -0.528   5.579  -3.258  0.00  0.00    +0.170 C 
ATOM      3  N   UNL     1      -1.238   6.306  -3.545  0.00  0.00    +0.298 N 
ATOM      4  C   UNL     1      -1.191   6.803  -5.037  0.00  0.00    +0.062 C 
ATOM      5  C   UNL     1       0.434   6.683  -5.093  0.00  0.00    +0.099 C 
ATOM      6  C   UNL     1      -0.160   5.314  -5.552  0.00  0.00    +0.180 C 
ATOM      7  C   UNL     1      -1.669   5.327  -5.772  0.00  0.00    +0.099 C 
ATOM      8  C   UNL     1      -1.568   8.306  -4.619  0.00  0.00    +0.061 C 
ATOM      9  C   UNL     1      -2.841   7.441  -4.950  0.00  0.00    +0.061 C 
ATOM     10  C   UNL     1      -2.492   5.883  -4.448  0.00  0.00    +0.062 C 
ATOM     11  C   UNL     1      -2.182   6.574  -2.643  0.00  0.00    +0.170 C 
ENDBRANCH   1   6
BRANCH   1  12
ATOM     12  C   UNL     1       1.542   4.392  -6.957  0.00  0.00    +0.352 C 
ATOM     13  O   UNL     1       2.270   3.957  -6.081  0.00  0.00    -0.247 OA
BRANCH  12  14
ATOM     14  C   UNL     1       2.453   5.085  -8.125  0.00  0.00    +0.272 C 
ATOM     15  O   UNL     1       2.720   3.712  -8.748  0.00  0.00    -0.206 OA
BRANCH  14  16
ATOM     16  C   UNL     1       1.171   5.345  -9.114  0.00  0.00    +0.019 A 
ATOM     17  C   UNL     1       1.117   6.667  -9.576  0.00  0.00    -0.001 A 
ATOM     18  C   UNL     1       0.490   6.946 -10.754  0.00  0.00    -0.000 A 
ATOM     19  C   UNL     1      -0.050   5.902 -11.490  0.00  0.00    -0.000 A 
ATOM     20  C   UNL     1       0.134   4.603 -11.091  0.00  0.00    -0.000 A 
ATOM     21  C   UNL     1       0.983   4.383 -10.045  0.00  0.00    -0.001 A 
ENDBRANCH  14  16
ENDBRANCH  12  14
ENDBRANCH   1  12
TORSDOF 4
ENDMDL
MODEL 6
REMARK VINA RESULT:      -7.5      3.243      4.988
REMARK  Name = 
REMARK  4 active torsions:
REMARK  status: ('A' for Active; 'I' for Inactive)
REMARK    1  A    between atoms: C_9  and  O_10
REMARK    2  A    between atoms: O_10  and  C_11
REMARK    3  A    between atoms: C_11  and  C_13
REMARK    4  A    between atoms: C_13  and  C_15
REMARK                            x       y       z     vdW  Elec       q    Type
REMARK                         _______ _______ _______ _____ _____    ______ ____
ROOT
ATOM      1  O   UNL     1       3.043   5.510  -7.211  0.00  0.00    -0.450 OA
ENDROOT
BRANCH   1   6
ATOM      2  C   UNL     1       3.247   5.704 -10.887  0.00  0.00    +0.170 C 
ATOM      3  N   UNL     1       2.194   5.697 -10.955  0.00  0.00    +0.298 N 
ATOM      4  C   UNL     1       1.394   5.298  -9.661  0.00  0.00    +0.062 C 
ATOM      5  C   UNL     1       2.535   4.223  -9.210  0.00  0.00    +0.099 C 
ATOM      6  C   UNL     1       2.903   5.601  -8.576  0.00  0.00    +0.180 C 
ATOM      7  C   UNL     1       1.819   6.665  -8.714  0.00  0.00    +0.099 C 
ATOM      8  C   UNL     1       0.277   4.517 -10.508  0.00  0.00    +0.061 C 
ATOM      9  C   UNL     1      -0.099   6.027 -10.272  0.00  0.00    +0.061 C 
ATOM     10  C   UNL     1       1.342   6.877 -10.284  0.00  0.00    +0.062 C 
ATOM     11  C   UNL     1       1.688   6.192 -12.086  0.00  0.00    +0.170 C 
ENDBRANCH   1   6
BRANCH   1  12
ATOM     12  C   UNL     1       2.425   6.387  -6.368  0.00  0.00    +0.352 C 
ATOM     13  O   UNL     1       2.864   7.454  -5.974  0.00  0.00    -0.247 OA
BRANCH  12  14
ATOM     14  C   UNL     1       1.552   5.686  -5.176  0.00  0.00    +0.272 C 
ATOM     15  O   UNL     1       1.849   6.868  -4.248  0.00  0.00    -0.206 OA
BRANCH  14  16
ATOM     16  C   UNL     1       0.142   6.360  -5.673  0.00  0.00    +0.019 A 
ATOM     17  C   UNL     1      -0.654   5.456  -6.389  0.00  0.00    -0.001 A 
ATOM     18  C   UNL     1      -2.007   5.629  -6.427  0.00  0.00    -0.000 A 
ATOM     19  C   UNL     1      -2.568   6.680  -5.718  0.00  0.00    -0.000 A 
ATOM     20  C   UNL     1      -1.788   7.468  -4.911  0.00  0.00    -0.000 A 
ATOM     21  C   UNL     1      -0.492   7.085  -4.723  0.00  0.00    -0.001 A 
ENDBRANCH  14  16
ENDBRANCH  12  14
ENDBRANCH   1  12
TORSDOF 4
ENDMDL
MODEL 7
REMARK VINA RESULT:      -7.4      4.097      7.565
REMARK  Name = 
REMARK  4 active torsions:
REMARK  status: ('A' for Active; 'I' for Inactive)
REMARK    1  A    between atoms: C_9  and  O_10
REMARK    2  A    between atoms: O_10  and  C_11
REMARK    3  A    between atoms: C_11  and  C_13
REMARK    4  A    between atoms: C_13  and  C_15
REMARK                            x       y       z     vdW  Elec       q    Type
REMARK                         _______ _______ _______ _____ _____    ______ ____
ROOT
ATOM      1  O   UNL     1       0.971   5.407  -6.515  0.00  0.00    -0.450 OA
ENDROOT
BRANCH   1   6
ATOM      2  C   UNL     1      -0.932   5.335  -3.358  0.00  0.00    +0.170 C 
ATOM      3  N   UNL     1      -1.591   6.071  -3.728  0.00  0.00    +0.298 N 
ATOM      4  C   UNL     1      -1.153   6.838  -5.031  0.00  0.00    +0.062 C 
ATOM      5  C   UNL     1       0.420   6.799  -4.600  0.00  0.00    +0.099 C 
ATOM      6  C   UNL     1       0.124   5.515  -5.438  0.00  0.00    +0.180 C 
ATOM      7  C   UNL     1      -1.246   5.505  -6.108  0.00  0.00    +0.099 C 
ATOM      8  C   UNL     1      -1.781   8.220  -4.510  0.00  0.00    +0.061 C 
ATOM      9  C   UNL     1      -2.808   7.378  -5.355  0.00  0.00    +0.061 C 
ATOM     10  C   UNL     1      -2.474   5.770  -5.032  0.00  0.00    +0.062 C 
ATOM     11  C   UNL     1      -2.782   6.128  -3.131  0.00  0.00    +0.170 C 
ENDBRANCH   1   6
BRANCH   1  12
ATOM     12  C   UNL     1       2.292   5.098  -6.360  0.00  0.00    +0.352 C 
ATOM     13  O   UNL     1       2.766   4.289  -5.581  0.00  0.00    -0.247 OA
BRANCH  12  14
ATOM     14  C   UNL     1       3.310   6.368  -6.510  0.00  0.00    +0.272 C 
ATOM     15  O   UNL     1       4.403   5.594  -5.767  0.00  0.00    -0.206 OA
BRANCH  14  16
ATOM     16  C   UNL     1       3.876   5.873  -7.968  0.00  0.00    +0.019 A 
ATOM     17  C   UNL     1       3.521   6.751  -9.001  0.00  0.00    -0.001 A 
ATOM     18  C   UNL     1       4.288   6.817 -10.126  0.00  0.00    -0.000 A 
ATOM     19  C   UNL     1       5.431   6.035 -10.205  0.00  0.00    -0.000 A 
ATOM     20  C   UNL     1       5.836   5.288  -9.129  0.00  0.00    -0.000 A 
ATOM     21  C   UNL     1       5.165   5.464  -7.954  0.00  0.00    -0.001 A 
ENDBRANCH  14  16
ENDBRANCH  12  14
ENDBRANCH   1  12
TORSDOF 4
ENDMDL
MODEL 8
REMARK VINA RESULT:      -7.4      4.302      7.310
REMARK  Name = 
REMARK  4 active torsions:
REMARK  status: ('A' for Active; 'I' for Inactive)
REMARK    1  A    between atoms: C_9  and  O_10
REMARK    2  A    between atoms: O_10  and  C_11
REMARK    3  A    between atoms: C_11  and  C_13
REMARK    4  A    between atoms: C_13  and  C_15
REMARK                            x       y       z     vdW  Elec       q    Type
REMARK                         _______ _______ _______ _____ _____    ______ ____
ROOT
ATOM      1  O   UNL     1       0.510   5.178  -6.708  0.00  0.00    -0.450 OA
ENDROOT
BRANCH   1   6
ATOM      2  C   UNL     1      -0.961   5.440  -3.338  0.00  0.00    +0.170 C 
ATOM      3  N   UNL     1      -1.608   6.205  -3.669  0.00  0.00    +0.298 N 
ATOM      4  C   UNL     1      -1.291   6.858  -5.065  0.00  0.00    +0.062 C 
ATOM      5  C   UNL     1       0.318   6.717  -4.836  0.00  0.00    +0.099 C 
ATOM      6  C   UNL     1      -0.178   5.416  -5.541  0.00  0.00    +0.180 C 
ATOM      7  C   UNL     1      -1.622   5.478  -6.030  0.00  0.00    +0.099 C 
ATOM      8  C   UNL     1      -1.742   8.314  -4.562  0.00  0.00    +0.061 C 
ATOM      9  C   UNL     1      -2.930   7.511  -5.211  0.00  0.00    +0.061 C 
ATOM     10  C   UNL     1      -2.675   5.903  -4.826  0.00  0.00    +0.062 C 
ATOM     11  C   UNL     1      -2.702   6.392  -2.930  0.00  0.00    +0.170 C 
ENDBRANCH   1   6
BRANCH   1  12
ATOM     12  C   UNL     1       1.532   5.987  -7.114  0.00  0.00    +0.352 C 
ATOM     13  O   UNL     1       1.489   6.834  -7.989  0.00  0.00    -0.247 OA
BRANCH  12  14
ATOM     14  C   UNL     1       3.003   5.274  -7.121  0.00  0.00    +0.272 C 
ATOM     15  O   UNL     1       3.608   6.502  -7.807  0.00  0.00    -0.206 OA
BRANCH  14  16
ATOM     16  C   UNL     1       3.399   5.842  -5.634  0.00  0.00    +0.019 A 
ATOM     17  C   UNL     1       3.974   4.854  -4.824  0.00  0.00    -0.001 A 
ATOM     18  C   UNL     1       4.814   5.214  -3.812  0.00  0.00    -0.000 A 
ATOM     19  C   UNL     1       5.109   6.557  -3.631  0.00  0.00    -0.000 A 
ATOM     20  C   UNL     1       4.648   7.494  -4.519  0.00  0.00    -0.000 A 
ATOM     21  C   UNL     1       4.027   7.039  -5.646  0.00  0.00    -0.001 A 
ENDBRANCH  14  16
ENDBRANCH  12  14
ENDBRANCH   1  12
TORSDOF 4
ENDMDL
MODEL 9
REMARK VINA RESULT:      -7.3      3.310      4.822
REMARK  Name = 
REMARK  4 active torsions:
REMARK  status: ('A' for Active; 'I' for Inactive)
REMARK    1  A    between atoms: C_9  and  O_10
REMARK    2  A    between atoms: O_10  and  C_11
REMARK    3  A    between atoms: C_11  and  C_13
REMARK    4  A    between atoms: C_13  and  C_15
REMARK                            x       y       z     vdW  Elec       q    Type
REMARK                         _______ _______ _______ _____ _____    ______ ____
ROOT
ATOM      1  O   UNL     1       2.880   5.972  -5.878  0.00  0.00    -0.450 OA
ENDROOT
BRANCH   1   6
ATOM      2  C   UNL     1       1.170   6.202  -9.137  0.00  0.00    +0.170 C 
ATOM      3  N   UNL     1       2.086   6.048  -9.639  0.00  0.00    +0.298 N 
ATOM      4  C   UNL     1       3.402   6.176  -8.785  0.00  0.00    +0.062 C 
ATOM      5  C   UNL     1       2.767   7.365  -7.868  0.00  0.00    +0.099 C 
ATOM      6  C   UNL     1       2.435   6.004  -7.179  0.00  0.00    +0.180 C 
ATOM      7  C   UNL     1       3.148   4.801  -7.789  0.00  0.00    +0.099 C 
ATOM      8  C   UNL     1       4.204   6.854  -9.999  0.00  0.00    +0.061 C 
ATOM      9  C   UNL     1       4.351   5.286  -9.987  0.00  0.00    +0.061 C 
ATOM     10  C   UNL     1       2.897   4.683  -9.420  0.00  0.00    +0.062 C 
ATOM     11  C   UNL     1       1.986   5.601 -10.891  0.00  0.00    +0.170 C 
ENDBRANCH   1   6
BRANCH   1  12
ATOM     12  C   UNL     1       2.119   6.444  -4.849  0.00  0.00    +0.352 C 
ATOM     13  O   UNL     1       2.504   7.101  -3.897  0.00  0.00    -0.247 OA
BRANCH  12  14
ATOM     14  C   UNL     1       0.927   5.435  -4.365  0.00  0.00    +0.272 C 
ATOM     15  O   UNL     1       0.777   6.220  -3.058  0.00  0.00    -0.206 OA
BRANCH  14  16
ATOM     16  C   UNL     1      -0.252   6.313  -5.091  0.00  0.00    +0.019 A 
ATOM     17  C   UNL     1      -1.057   5.530  -5.930  0.00  0.00    -0.001 A 
ATOM     18  C   UNL     1      -2.337   5.917  -6.194  0.00  0.00    -0.000 A 
ATOM     19  C   UNL     1      -2.828   7.066  -5.591  0.00  0.00    -0.000 A 
ATOM     20  C   UNL     1      -2.073   7.741  -4.666  0.00  0.00    -0.000 A 
ATOM     21  C   UNL     1      -0.906   7.158  -4.263  0.00  0.00    -0.001 A 
ENDBRANCH  14  16
ENDBRANCH  12  14
ENDBRANCH   1  12
TORSDOF 4
ENDMDL
