MODEL 1
REMARK VINA RESULT:      -9.2      0.000      0.000
REMARK  Name = 
REMARK  9 active torsions:
REMARK  status: ('A' for Active; 'I' for Inactive)
REMARK    1  A    between atoms: C_6  and  C_8
REMARK    2  A    between atoms: C_8  and  C_9
REMARK    3  A    between atoms: C_8  and  N_16
REMARK    4  A    between atoms: C_9  and  C_10
REMARK    5  A    between atoms: C_10  and  C_11
REMARK    6  A    between atoms: C_11  and  N_12
REMARK    7  A    between atoms: N_16  and  S_17
REMARK    8  A    between atoms: S_17  and  C_20
REMARK    9  A    between atoms: C_31  and  C_32
REMARK                            x       y       z     vdW  Elec       q    Type
REMARK                         _______ _______ _______ _____ _____    ______ ____
ROOT
ATOM      1  C   UNL     1       3.391   5.507  -6.518  0.00  0.00    +0.174 C 
ENDROOT
BRANCH   1   7
ATOM      2  C   UNL     1      -1.974   7.396  -2.984  0.00  0.00    +0.000 C 
ATOM      3  C   UNL     1      -1.672   6.425  -4.261  0.00  0.00    +0.004 C 
ATOM      4  C   UNL     1      -0.662   7.504  -4.923  0.00  0.00    +0.032 C 
ATOM      5  C   UNL     1      -0.019   6.777  -6.251  0.00  0.00    +0.179 C 
ATOM      6  N   UNL     1       0.951   5.895  -5.373  0.00  0.00    -0.270 N 
ATOM      7  C   UNL     1       2.019   5.249  -5.734  0.00  0.00    +0.244 C 
ATOM      8  O   UNL     1       1.945   3.973  -5.834  0.00  0.00    -0.273 OA
ATOM      9  C   UNL     1       0.203   5.043  -4.422  0.00  0.00    +0.094 C 
ATOM     10  C   UNL     1      -0.507   5.694  -3.378  0.00  0.00    +0.022 C 
BRANCH   5  11
ATOM     11  C   UNL     1      -1.156   5.639  -6.433  0.00  0.00    +0.382 C 
ATOM     12  O   UNL     1      -2.459   6.076  -6.452  0.00  0.00    -0.244 OA
ATOM     13  O   UNL     1      -0.832   4.647  -7.095  0.00  0.00    -0.244 OA
ENDBRANCH   5  11
ENDBRANCH   1   7
BRANCH   1  14
ATOM     14  N   UNL     1       2.792   6.131  -7.830  0.00  0.00    -0.070 NA
BRANCH  14  15
ATOM     15  S   UNL     1       2.642   5.229  -9.134  0.00  0.00    +0.078 S 
ATOM     16  O   UNL     1       1.299   4.772  -9.611  0.00  0.00    -0.152 OA
ATOM     17  O   UNL     1       3.360   3.936  -8.746  0.00  0.00    -0.152 OA
BRANCH  15  18
ATOM     18  C   UNL     1       3.409   5.770 -10.642  0.00  0.00    +0.138 A 
ATOM     19  C   UNL     1       4.754   5.434 -10.811  0.00  0.00    +0.080 A 
ATOM     20  N   UNL     1       5.560   5.761  -9.671  0.00  0.00    -0.237 NA
ATOM     21  C   UNL     1       6.957   5.828  -9.649  0.00  0.00    +0.113 C 
ATOM     22  C   UNL     1       7.505   6.609 -10.974  0.00  0.00    +0.026 C 
ATOM     23  C   UNL     1       6.865   5.532 -12.020  0.00  0.00    +0.029 C 
ATOM     24  C   UNL     1       6.259   7.667 -11.047  0.00  0.00    +0.002 C 
ATOM     25  C   UNL     1       5.423   5.596 -12.005  0.00  0.00    -0.006 A 
ATOM     26  C   UNL     1       4.657   5.763 -13.158  0.00  0.00    -0.003 A 
ATOM     27  C   UNL     1       3.285   5.794 -13.077  0.00  0.00    +0.001 A 
ATOM     28  C   UNL     1       2.707   5.645 -11.844  0.00  0.00    +0.021 A 
ENDBRANCH  15  18
ENDBRANCH  14  15
ENDBRANCH   1  14
BRANCH   1  29
ATOM     29  C   UNL     1       3.591   6.967  -5.764  0.00  0.00    +0.032 C 
BRANCH  29  30
ATOM     30  C   UNL     1       4.776   6.808  -4.864  0.00  0.00    +0.049 C 
BRANCH  30  31
ATOM     31  C   UNL     1       4.482   6.900  -3.401  0.00  0.00    +0.220 C 
BRANCH  31  32
ATOM     32  N   UNL     1       4.240   5.575  -2.884  0.00  0.00    -0.087 NA
ATOM     33  C   UNL     1       3.543   5.522  -1.648  0.00  0.00    +0.535 C 
ATOM     34  N   UNL     1       3.705   4.395  -0.792  0.00  0.00    +0.135 NA
ATOM     35  N   UNL     1       2.520   6.295  -1.483  0.00  0.00    +0.135 NA
ENDBRANCH  31  32
ENDBRANCH  30  31
ENDBRANCH  29  30
ENDBRANCH   1  29
TORSDOF 9
ENDMDL
MODEL 2
REMARK VINA RESULT:      -9.0      1.913      3.890
REMARK  Name = 
REMARK  9 active torsions:
REMARK  status: ('A' for Active; 'I' for Inactive)
REMARK    1  A    between atoms: C_6  and  C_8
REMARK    2  A    between atoms: C_8  and  C_9
REMARK    3  A    between atoms: C_8  and  N_16
REMARK    4  A    between atoms: C_9  and  C_10
REMARK    5  A    between atoms: C_10  and  C_11
REMARK    6  A    between atoms: C_11  and  N_12
REMARK    7  A    between atoms: N_16  and  S_17
REMARK    8  A    between atoms: S_17  and  C_20
REMARK    9  A    between atoms: C_31  and  C_32
REMARK                            x       y       z     vdW  Elec       q    Type
REMARK                         _______ _______ _______ _____ _____    ______ ____
ROOT
ATOM      1  C   UNL     1       2.037   6.600  -6.744  0.00  0.00    +0.174 C 
ENDROOT
BRANCH   1   7
ATOM      2  C   UNL     1       3.175   8.078  -0.313  0.00  0.00    +0.000 C 
ATOM      3  C   UNL     1       3.744   7.009  -1.407  0.00  0.00    +0.004 C 
ATOM      4  C   UNL     1       2.256   6.686  -1.959  0.00  0.00    +0.032 C 
ATOM      5  C   UNL     1       2.451   5.673  -3.240  0.00  0.00    +0.179 C 
ATOM      6  N   UNL     1       2.915   6.853  -4.179  0.00  0.00    -0.270 N 
ATOM      7  C   UNL     1       2.971   6.890  -5.476  0.00  0.00    +0.244 C 
ATOM      8  O   UNL     1       4.124   6.814  -6.030  0.00  0.00    -0.273 OA
ATOM      9  C   UNL     1       4.121   7.528  -3.651  0.00  0.00    +0.094 C 
ATOM     10  C   UNL     1       3.989   8.253  -2.437  0.00  0.00    +0.022 C 
BRANCH   5  11
ATOM     11  C   UNL     1       3.943   5.160  -2.871  0.00  0.00    +0.382 C 
ATOM     12  O   UNL     1       4.104   4.594  -1.630  0.00  0.00    -0.244 OA
ATOM     13  O   UNL     1       4.633   4.768  -3.819  0.00  0.00    -0.244 OA
ENDBRANCH   5  11
ENDBRANCH   1   7
BRANCH   1  14
ATOM     14  N   UNL     1       3.132   6.014  -7.707  0.00  0.00    -0.070 NA
BRANCH  14  15
ATOM     15  S   UNL     1       2.691   5.321  -9.072  0.00  0.00    +0.078 S 
ATOM     16  O   UNL     1       1.255   5.268  -9.487  0.00  0.00    -0.152 OA
ATOM     17  O   UNL     1       3.072   3.856  -8.857  0.00  0.00    -0.152 OA
BRANCH  15  18
ATOM     18  C   UNL     1       3.496   5.809 -10.578  0.00  0.00    +0.138 A 
ATOM     19  C   UNL     1       4.831   5.425 -10.723  0.00  0.00    +0.080 A 
ATOM     20  N   UNL     1       5.633   5.743  -9.578  0.00  0.00    -0.237 NA
ATOM     21  C   UNL     1       7.031   5.763  -9.537  0.00  0.00    +0.113 C 
ATOM     22  C   UNL     1       7.623   6.501 -10.868  0.00  0.00    +0.026 C 
ATOM     23  C   UNL     1       6.960   5.429 -11.904  0.00  0.00    +0.029 C 
ATOM     24  C   UNL     1       6.416   7.600 -10.975  0.00  0.00    +0.002 C 
ATOM     25  C   UNL     1       5.521   5.543 -11.911  0.00  0.00    -0.006 A 
ATOM     26  C   UNL     1       4.777   5.717 -13.076  0.00  0.00    -0.003 A 
ATOM     27  C   UNL     1       3.405   5.796 -13.015  0.00  0.00    +0.001 A 
ATOM     28  C   UNL     1       2.807   5.689 -11.788  0.00  0.00    +0.021 A 
ENDBRANCH  15  18
ENDBRANCH  14  15
ENDBRANCH   1  14
BRANCH   1  29
ATOM     29  C   UNL     1       1.603   5.125  -6.134  0.00  0.00    +0.032 C 
BRANCH  29  30
ATOM     30  C   UNL     1       0.106   5.090  -6.162  0.00  0.00    +0.049 C 
BRANCH  30  31
ATOM     31  C   UNL     1      -0.571   6.156  -5.363  0.00  0.00    +0.220 C 
BRANCH  31  32
ATOM     32  N   UNL     1      -1.779   5.619  -4.786  0.00  0.00    -0.087 NA
ATOM     33  C   UNL     1      -1.872   5.714  -3.372  0.00  0.00    +0.535 C 
ATOM     34  N   UNL     1      -2.690   4.794  -2.653  0.00  0.00    +0.135 NA
ATOM     35  N   UNL     1      -1.520   6.819  -2.803  0.00  0.00    +0.135 NA
ENDBRANCH  31  32
ENDBRANCH  30  31
ENDBRANCH  29  30
ENDBRANCH   1  29
TORSDOF 9
ENDMDL
MODEL 3
REMARK VINA RESULT:      -8.8      2.578      8.303
REMARK  Name = 
REMARK  9 active torsions:
REMARK  status: ('A' for Active; 'I' for Inactive)
REMARK    1  A    between atoms: C_6  and  C_8
REMARK    2  A    between atoms: C_8  and  C_9
REMARK    3  A    between atoms: C_8  and  N_16
REMARK    4  A    between atoms: C_9  and  C_10
REMARK    5  A    between atoms: C_10  and  C_11
REMARK    6  A    between atoms: C_11  and  N_12
REMARK    7  A    between atoms: N_16  and  S_17
REMARK    8  A    between atoms: S_17  and  C_20
REMARK    9  A    between atoms: C_31  and  C_32
REMARK                            x       y       z     vdW  Elec       q    Type
REMARK                         _______ _______ _______ _____ _____    ______ ____
ROOT
ATOM      1  C   UNL     1       2.569   6.574  -8.916  0.00  0.00    +0.174 C 
ENDROOT
BRANCH   1   7
ATOM      2  C   UNL     1       0.935   7.611 -15.326  0.00  0.00    +0.000 C 
ATOM      3  C   UNL     1       0.557   6.531 -14.162  0.00  0.00    +0.004 C 
ATOM      4  C   UNL     1       2.100   6.415 -13.681  0.00  0.00    +0.032 C 
ATOM      5  C   UNL     1       2.095   5.445 -12.352  0.00  0.00    +0.179 C 
ATOM      6  N   UNL     1       1.538   6.602 -11.436  0.00  0.00    -0.270 N 
ATOM      7  C   UNL     1       1.543   6.691 -10.140  0.00  0.00    +0.244 C 
ATOM      8  O   UNL     1       0.438   6.502  -9.520  0.00  0.00    -0.273 OA
ATOM      9  C   UNL     1       0.234   7.103 -11.922  0.00  0.00    +0.094 C 
ATOM     10  C   UNL     1       0.215   7.783 -13.168  0.00  0.00    +0.022 C 
BRANCH   5  11
ATOM     11  C   UNL     1       0.660   4.741 -12.617  0.00  0.00    +0.382 C 
ATOM     12  O   UNL     1       0.507   4.105 -13.826  0.00  0.00    -0.244 OA
ATOM     13  O   UNL     1       0.073   4.311 -11.618  0.00  0.00    -0.244 OA
ENDBRANCH   5  11
ENDBRANCH   1   7
BRANCH   1  14
ATOM     14  N   UNL     1       1.821   5.461  -8.096  0.00  0.00    -0.070 NA
BRANCH  14  15
ATOM     15  S   UNL     1       2.389   5.012  -6.677  0.00  0.00    +0.078 S 
ATOM     16  O   UNL     1       3.842   5.145  -6.345  0.00  0.00    -0.152 OA
ATOM     17  O   UNL     1       2.139   3.504  -6.664  0.00  0.00    -0.152 OA
BRANCH  15  18
ATOM     18  C   UNL     1       1.613   5.639  -5.207  0.00  0.00    +0.138 A 
ATOM     19  C   UNL     1       0.258   5.346  -5.045  0.00  0.00    +0.080 A 
ATOM     20  N   UNL     1      -0.523   5.641  -6.212  0.00  0.00    -0.237 NA
ATOM     21  C   UNL     1      -1.916   5.743  -6.260  0.00  0.00    +0.113 C 
ATOM     22  C   UNL     1      -2.465   6.595  -4.980  0.00  0.00    +0.026 C 
ATOM     23  C   UNL     1      -1.868   5.551  -3.877  0.00  0.00    +0.029 C 
ATOM     24  C   UNL     1      -1.193   7.624  -4.934  0.00  0.00    +0.002 C 
ATOM     25  C   UNL     1      -0.425   5.577  -3.871  0.00  0.00    -0.006 A 
ATOM     26  C   UNL     1       0.326   5.777  -2.714  0.00  0.00    -0.003 A 
ATOM     27  C   UNL     1       1.700   5.769  -2.774  0.00  0.00    +0.001 A 
ATOM     28  C   UNL     1       2.293   5.551  -3.989  0.00  0.00    +0.021 A 
ENDBRANCH  15  18
ENDBRANCH  14  15
ENDBRANCH   1  14
BRANCH   1  29
ATOM     29  C   UNL     1       3.508   5.501  -9.756  0.00  0.00    +0.032 C 
BRANCH  29  30
ATOM     30  C   UNL     1       4.863   6.130  -9.859  0.00  0.00    +0.049 C 
BRANCH  30  31
ATOM     31  C   UNL     1       5.127   6.866 -11.133  0.00  0.00    +0.220 C 
BRANCH  31  32
ATOM     32  N   UNL     1       6.454   6.543 -11.599  0.00  0.00    -0.087 NA
ATOM     33  C   UNL     1       6.552   5.363 -12.382  0.00  0.00    +0.535 C 
ATOM     34  N   UNL     1       7.788   4.656 -12.444  0.00  0.00    +0.135 NA
ATOM     35  N   UNL     1       5.659   5.150 -13.292  0.00  0.00    +0.135 NA
ENDBRANCH  31  32
ENDBRANCH  30  31
ENDBRANCH  29  30
ENDBRANCH   1  29
TORSDOF 9
ENDMDL
MODEL 4
REMARK VINA RESULT:      -8.8      2.606      8.818
REMARK  Name = 
REMARK  9 active torsions:
REMARK  status: ('A' for Active; 'I' for Inactive)
REMARK    1  A    between atoms: C_6  and  C_8
REMARK    2  A    between atoms: C_8  and  C_9
REMARK    3  A    between atoms: C_8  and  N_16
REMARK    4  A    between atoms: C_9  and  C_10
REMARK    5  A    between atoms: C_10  and  C_11
REMARK    6  A    between atoms: C_11  and  N_12
REMARK    7  A    between atoms: N_16  and  S_17
REMARK    8  A    between atoms: S_17  and  C_20
REMARK    9  A    between atoms: C_31  and  C_32
REMARK                            x       y       z     vdW  Elec       q    Type
REMARK                         _______ _______ _______ _____ _____    ______ ____
ROOT
ATOM      1  C   UNL     1       3.055   4.500  -8.608  0.00  0.00    +0.174 C 
ENDROOT
BRANCH   1   7
ATOM      2  C   UNL     1       8.843   5.392 -11.855  0.00  0.00    +0.000 C 
ATOM      3  C   UNL     1       7.598   6.327 -11.364  0.00  0.00    +0.004 C 
ATOM      4  C   UNL     1       6.505   5.236 -11.851  0.00  0.00    +0.032 C 
ATOM      5  C   UNL     1       5.039   5.811 -11.375  0.00  0.00    +0.179 C 
ATOM      6  N   UNL     1       5.294   5.392  -9.876  0.00  0.00    -0.270 N 
ATOM      7  C   UNL     1       4.436   5.252  -8.910  0.00  0.00    +0.244 C 
ATOM      8  O   UNL     1       4.395   6.160  -8.006  0.00  0.00    -0.273 OA
ATOM      9  C   UNL     1       6.499   6.050  -9.323  0.00  0.00    +0.094 C 
ATOM     10  C   UNL     1       7.756   5.682  -9.871  0.00  0.00    +0.022 C 
BRANCH   5  11
ATOM     11  C   UNL     1       5.476   7.360 -11.190  0.00  0.00    +0.382 C 
ATOM     12  O   UNL     1       6.210   7.913 -12.212  0.00  0.00    -0.244 OA
ATOM     13  O   UNL     1       4.703   8.068 -10.536  0.00  0.00    -0.244 OA
ENDBRANCH   5  11
ENDBRANCH   1   7
BRANCH   1  14
ATOM     14  N   UNL     1       2.595   5.353  -7.372  0.00  0.00    -0.070 NA
BRANCH  14  15
ATOM     15  S   UNL     1       2.491   4.669  -5.937  0.00  0.00    +0.078 S 
ATOM     16  O   UNL     1       3.716   4.275  -5.175  0.00  0.00    -0.152 OA
ATOM     17  O   UNL     1       1.793   3.342  -6.235  0.00  0.00    -0.152 OA
BRANCH  15  18
ATOM     18  C   UNL     1       1.509   5.455  -4.682  0.00  0.00    +0.138 A 
ATOM     19  C   UNL     1       0.129   5.253  -4.755  0.00  0.00    +0.080 A 
ATOM     20  N   UNL     1      -0.406   5.497  -6.063  0.00  0.00    -0.237 NA
ATOM     21  C   UNL     1      -1.757   5.673  -6.375  0.00  0.00    +0.113 C 
ATOM     22  C   UNL     1      -2.466   6.656  -5.280  0.00  0.00    +0.026 C 
ATOM     23  C   UNL     1      -2.153   5.672  -4.016  0.00  0.00    +0.029 C 
ATOM     24  C   UNL     1      -1.154   7.612  -5.071  0.00  0.00    +0.002 C 
ATOM     25  C   UNL     1      -0.736   5.617  -3.745  0.00  0.00    -0.006 A 
ATOM     26  C   UNL     1      -0.193   5.867  -2.486  0.00  0.00    -0.003 A 
ATOM     27  C   UNL     1       1.165   5.776  -2.290  0.00  0.00    +0.001 A 
ATOM     28  C   UNL     1       1.950   5.428  -3.357  0.00  0.00    +0.021 A 
ENDBRANCH  15  18
ENDBRANCH  14  15
ENDBRANCH   1  14
BRANCH   1  29
ATOM     29  C   UNL     1       2.259   5.440  -9.713  0.00  0.00    +0.032 C 
BRANCH  29  30
ATOM     30  C   UNL     1       0.843   4.950  -9.728  0.00  0.00    +0.049 C 
BRANCH  30  31
ATOM     31  C   UNL     1       0.127   5.114 -11.029  0.00  0.00    +0.220 C 
BRANCH  31  32
ATOM     32  N   UNL     1       0.879   6.010 -11.873  0.00  0.00    -0.087 NA
ATOM     33  C   UNL     1       0.179   7.167 -12.308  0.00  0.00    +0.535 C 
ATOM     34  N   UNL     1       0.572   7.820 -13.512  0.00  0.00    +0.135 NA
ATOM     35  N   UNL     1      -0.544   7.809 -11.451  0.00  0.00    +0.135 NA
ENDBRANCH  31  32
ENDBRANCH  30  31
ENDBRANCH  29  30
ENDBRANCH   1  29
TORSDOF 9
ENDMDL
MODEL 5
REMARK VINA RESULT:      -8.4      3.152      7.556
REMARK  Name = 
REMARK  9 active torsions:
REMARK  status: ('A' for Active; 'I' for Inactive)
REMARK    1  A    between atoms: C_6  and  C_8
REMARK    2  A    between atoms: C_8  and  C_9
REMARK    3  A    between atoms: C_8  and  N_16
REMARK    4  A    between atoms: C_9  and  C_10
REMARK    5  A    between atoms: C_10  and  C_11
REMARK    6  A    between atoms: C_11  and  N_12
REMARK    7  A    between atoms: N_16  and  S_17
REMARK    8  A    between atoms: S_17  and  C_20
REMARK    9  A    between atoms: C_31  and  C_32
REMARK                            x       y       z     vdW  Elec       q    Type
REMARK                         _______ _______ _______ _____ _____    ______ ____
ROOT
ATOM      1  C   UNL     1       2.610   6.587  -3.802  0.00  0.00    +0.174 C 
ENDROOT
BRANCH   1   7
ATOM      2  C   UNL     1       0.424   6.266 -10.123  0.00  0.00    +0.000 C 
ATOM      3  C   UNL     1       1.790   5.884  -9.316  0.00  0.00    +0.004 C 
ATOM      4  C   UNL     1       1.750   7.262  -8.467  0.00  0.00    +0.032 C 
ATOM      5  C   UNL     1       2.984   7.171  -7.384  0.00  0.00    +0.179 C 
ATOM      6  N   UNL     1       2.180   6.177  -6.460  0.00  0.00    -0.270 N 
ATOM      7  C   UNL     1       2.391   5.867  -5.216  0.00  0.00    +0.244 C 
ATOM      8  O   UNL     1       2.902   4.720  -4.961  0.00  0.00    -0.273 OA
ATOM      9  C   UNL     1       1.811   4.939  -7.182  0.00  0.00    +0.094 C 
ATOM     10  C   UNL     1       0.877   5.054  -8.245  0.00  0.00    +0.022 C 
BRANCH   5  11
ATOM     11  C   UNL     1       3.842   6.029  -8.147  0.00  0.00    +0.382 C 
ATOM     12  O   UNL     1       4.160   6.279  -9.460  0.00  0.00    -0.244 OA
ATOM     13  O   UNL     1       4.615   5.369  -7.443  0.00  0.00    -0.244 OA
ENDBRANCH   5  11
ENDBRANCH   1   7
BRANCH   1  14
ATOM     14  N   UNL     1       2.453   5.327  -2.877  0.00  0.00    -0.070 NA
BRANCH  14  15
ATOM     15  S   UNL     1       1.466   5.385  -1.627  0.00  0.00    +0.078 S 
ATOM     16  O   UNL     1       1.967   5.721  -0.258  0.00  0.00    -0.152 OA
ATOM     17  O   UNL     1       0.978   3.941  -1.503  0.00  0.00    -0.152 OA
BRANCH  15  18
ATOM     18  C   UNL     1      -0.002   6.378  -1.741  0.00  0.00    +0.138 A 
ATOM     19  C   UNL     1      -0.998   5.919  -2.606  0.00  0.00    +0.080 A 
ATOM     20  N   UNL     1      -0.498   5.579  -3.906  0.00  0.00    -0.237 NA
ATOM     21  C   UNL     1      -1.271   5.386  -5.056  0.00  0.00    +0.113 C 
ATOM     22  C   UNL     1      -2.409   6.551  -5.173  0.00  0.00    +0.026 C 
ATOM     23  C   UNL     1      -3.128   6.158  -3.761  0.00  0.00    +0.029 C 
ATOM     24  C   UNL     1      -1.468   7.737  -4.551  0.00  0.00    +0.002 C 
ATOM     25  C   UNL     1      -2.266   6.459  -2.643  0.00  0.00    -0.006 A 
ATOM     26  C   UNL     1      -2.670   7.236  -1.559  0.00  0.00    -0.003 A 
ATOM     27  C   UNL     1      -1.806   7.467  -0.515  0.00  0.00    +0.001 A 
ATOM     28  C   UNL     1      -0.558   6.906  -0.573  0.00  0.00    +0.021 A 
ENDBRANCH  15  18
ENDBRANCH  14  15
ENDBRANCH   1  14
BRANCH   1  29
ATOM     29  C   UNL     1       4.252   6.439  -3.938  0.00  0.00    +0.032 C 
BRANCH  29  30
ATOM     30  C   UNL     1       4.828   7.711  -3.397  0.00  0.00    +0.049 C 
BRANCH  30  31
ATOM     31  C   UNL     1       4.013   8.377  -2.336  0.00  0.00    +0.220 C 
BRANCH  31  32
ATOM     32  N   UNL     1       4.399   7.857  -1.047  0.00  0.00    -0.087 NA
ATOM     33  C   UNL     1       3.953   8.610   0.071  0.00  0.00    +0.535 C 
ATOM     34  N   UNL     1       4.670   8.543   1.301  0.00  0.00    +0.135 NA
ATOM     35  N   UNL     1       2.737   9.047   0.076  0.00  0.00    +0.135 NA
ENDBRANCH  31  32
ENDBRANCH  30  31
ENDBRANCH  29  30
ENDBRANCH   1  29
TORSDOF 9
ENDMDL
MODEL 6
REMARK VINA RESULT:      -8.4      2.515      5.105
REMARK  Name = 
REMARK  9 active torsions:
REMARK  status: ('A' for Active; 'I' for Inactive)
REMARK    1  A    between atoms: C_6  and  C_8
REMARK    2  A    between atoms: C_8  and  C_9
REMARK    3  A    between atoms: C_8  and  N_16
REMARK    4  A    between atoms: C_9  and  C_10
REMARK    5  A    between atoms: C_10  and  C_11
REMARK    6  A    between atoms: C_11  and  N_12
REMARK    7  A    between atoms: N_16  and  S_17
REMARK    8  A    between atoms: S_17  and  C_20
REMARK    9  A    between atoms: C_31  and  C_32
REMARK                            x       y       z     vdW  Elec       q    Type
REMARK                         _______ _______ _______ _____ _____    ______ ____
ROOT
ATOM      1  C   UNL     1       1.059   6.126  -6.312  0.00  0.00    +0.174 C 
ENDROOT
BRANCH   1   7
ATOM      2  C   UNL     1       4.342   3.826  -0.948  0.00  0.00    +0.000 C 
ATOM      3  C   UNL     1       3.985   5.283  -1.590  0.00  0.00    +0.004 C 
ATOM      4  C   UNL     1       4.338   4.780  -3.088  0.00  0.00    +0.032 C 
ATOM      5  C   UNL     1       3.953   6.024  -4.093  0.00  0.00    +0.179 C 
ATOM      6  N   UNL     1       2.410   5.714  -3.984  0.00  0.00    -0.270 N 
ATOM      7  C   UNL     1       1.442   6.105  -4.757  0.00  0.00    +0.244 C 
ATOM      8  O   UNL     1       0.663   7.026  -4.325  0.00  0.00    -0.273 OA
ATOM      9  C   UNL     1       1.936   5.794  -2.584  0.00  0.00    +0.094 C 
ATOM     10  C   UNL     1       2.421   4.820  -1.671  0.00  0.00    +0.022 C 
BRANCH   5  11
ATOM     11  C   UNL     1       3.965   7.200  -2.979  0.00  0.00    +0.382 C 
ATOM     12  O   UNL     1       5.143   7.382  -2.296  0.00  0.00    -0.244 OA
ATOM     13  O   UNL     1       3.228   8.167  -3.201  0.00  0.00    -0.244 OA
ENDBRANCH   5  11
ENDBRANCH   1   7
BRANCH   1  14
ATOM     14  N   UNL     1       2.207   5.194  -6.843  0.00  0.00    -0.070 NA
BRANCH  14  15
ATOM     15  S   UNL     1       3.348   5.802  -7.774  0.00  0.00    +0.078 S 
ATOM     16  O   UNL     1       4.796   5.605  -7.455  0.00  0.00    -0.152 OA
ATOM     17  O   UNL     1       3.138   7.310  -7.640  0.00  0.00    -0.152 OA
BRANCH  15  18
ATOM     18  C   UNL     1       3.302   5.464  -9.517  0.00  0.00    +0.138 A 
ATOM     19  C   UNL     1       2.399   6.215 -10.272  0.00  0.00    +0.080 A 
ATOM     20  N   UNL     1       1.079   6.236  -9.711  0.00  0.00    -0.237 NA
ATOM     21  C   UNL     1      -0.086   6.635 -10.373  0.00  0.00    +0.113 C 
ATOM     22  C   UNL     1      -0.121   6.009 -11.881  0.00  0.00    +0.026 C 
ATOM     23  C   UNL     1       1.253   6.756 -12.351  0.00  0.00    +0.029 C 
ATOM     24  C   UNL     1       0.595   4.596 -11.469  0.00  0.00    +0.002 C 
ATOM     25  C   UNL     1       2.395   6.220 -11.650  0.00  0.00    -0.006 A 
ATOM     26  C   UNL     1       3.533   5.747 -12.302  0.00  0.00    -0.003 A 
ATOM     27  C   UNL     1       4.597   5.269 -11.573  0.00  0.00    +0.001 A 
ATOM     28  C   UNL     1       4.503   5.285 -10.207  0.00  0.00    +0.021 A 
ENDBRANCH  15  18
ENDBRANCH  14  15
ENDBRANCH   1  14
BRANCH   1  29
ATOM     29  C   UNL     1      -0.019   4.888  -6.100  0.00  0.00    +0.032 C 
BRANCH  29  30
ATOM     30  C   UNL     1      -1.274   5.310  -6.801  0.00  0.00    +0.049 C 
BRANCH  30  31
ATOM     31  C   UNL     1      -2.234   6.097  -5.968  0.00  0.00    +0.220 C 
BRANCH  31  32
ATOM     32  N   UNL     1      -2.763   5.248  -4.928  0.00  0.00    -0.087 NA
ATOM     33  C   UNL     1      -2.591   5.732  -3.603  0.00  0.00    +0.535 C 
ATOM     34  N   UNL     1      -2.562   4.814  -2.513  0.00  0.00    +0.135 NA
ATOM     35  N   UNL     1      -2.824   6.981  -3.367  0.00  0.00    +0.135 NA
ENDBRANCH  31  32
ENDBRANCH  30  31
ENDBRANCH  29  30
ENDBRANCH   1  29
TORSDOF 9
ENDMDL
MODEL 7
REMARK VINA RESULT:      -8.4      3.683      9.110
REMARK  Name = 
REMARK  9 active torsions:
REMARK  status: ('A' for Active; 'I' for Inactive)
REMARK    1  A    between atoms: C_6  and  C_8
REMARK    2  A    between atoms: C_8  and  C_9
REMARK    3  A    between atoms: C_8  and  N_16
REMARK    4  A    between atoms: C_9  and  C_10
REMARK    5  A    between atoms: C_10  and  C_11
REMARK    6  A    between atoms: C_11  and  N_12
REMARK    7  A    between atoms: N_16  and  S_17
REMARK    8  A    between atoms: S_17  and  C_20
REMARK    9  A    between atoms: C_31  and  C_32
REMARK                            x       y       z     vdW  Elec       q    Type
REMARK                         _______ _______ _______ _____ _____    ______ ____
ROOT
ATOM      1  C   UNL     1       0.889   5.481  -4.060  0.00  0.00    +0.174 C 
ENDROOT
BRANCH   1   7
ATOM      2  C   UNL     1       5.545   4.686  -8.807  0.00  0.00    +0.000 C 
ATOM      3  C   UNL     1       4.487   5.846  -8.361  0.00  0.00    +0.004 C 
ATOM      4  C   UNL     1       3.300   4.766  -8.138  0.00  0.00    +0.032 C 
ATOM      5  C   UNL     1       2.025   5.605  -7.525  0.00  0.00    +0.179 C 
ATOM      6  N   UNL     1       2.687   5.683  -6.095  0.00  0.00    -0.270 N 
ATOM      7  C   UNL     1       2.133   5.954  -4.952  0.00  0.00    +0.244 C 
ATOM      8  O   UNL     1       2.345   7.109  -4.439  0.00  0.00    -0.273 OA
ATOM      9  C   UNL     1       3.999   6.367  -6.138  0.00  0.00    +0.094 C 
ATOM     10  C   UNL     1       5.054   5.719  -6.833  0.00  0.00    +0.022 C 
BRANCH   5  11
ATOM     11  C   UNL     1       2.498   7.078  -8.006  0.00  0.00    +0.382 C 
ATOM     12  O   UNL     1       2.870   7.199  -9.323  0.00  0.00    -0.244 OA
ATOM     13  O   UNL     1       1.971   8.034  -7.426  0.00  0.00    -0.244 OA
ENDBRANCH   5  11
ENDBRANCH   1   7
BRANCH   1  14
ATOM     14  N   UNL     1       1.242   6.263  -2.743  0.00  0.00    -0.070 NA
BRANCH  14  15
ATOM     15  S   UNL     1       0.959   5.589  -1.327  0.00  0.00    +0.078 S 
ATOM     16  O   UNL     1       2.049   4.910  -0.559  0.00  0.00    -0.152 OA
ATOM     17  O   UNL     1      -0.016   4.461  -1.668  0.00  0.00    -0.152 OA
BRANCH  15  18
ATOM     18  C   UNL     1       0.157   6.550  -0.067  0.00  0.00    +0.138 A 
ATOM     19  C   UNL     1       0.633   7.849   0.122  0.00  0.00    +0.080 A 
ATOM     20  N   UNL     1       2.060   7.911   0.250  0.00  0.00    -0.237 NA
ATOM     21  C   UNL     1       2.792   8.997   0.739  0.00  0.00    +0.113 C 
ATOM     22  C   UNL     1       2.076   9.604   2.076  0.00  0.00    +0.026 C 
ATOM     23  C   UNL     1       0.685   9.975   1.307  0.00  0.00    +0.029 C 
ATOM     24  C   UNL     1       1.568   8.154   2.640  0.00  0.00    +0.002 C 
ATOM     25  C   UNL     1      -0.016   8.779   0.905  0.00  0.00    -0.006 A 
ATOM     26  C   UNL     1      -1.349   8.534   1.229  0.00  0.00    -0.003 A 
ATOM     27  C   UNL     1      -1.965   7.384   0.796  0.00  0.00    +0.001 A 
ATOM     28  C   UNL     1      -1.235   6.507   0.039  0.00  0.00    +0.021 A 
ENDBRANCH  15  18
ENDBRANCH  14  15
ENDBRANCH   1  14
BRANCH   1  29
ATOM     29  C   UNL     1      -0.059   6.690  -4.673  0.00  0.00    +0.032 C 
BRANCH  29  30
ATOM     30  C   UNL     1      -0.927   6.049  -5.711  0.00  0.00    +0.049 C 
BRANCH  30  31
ATOM     31  C   UNL     1      -2.394   6.093  -5.430  0.00  0.00    +0.220 C 
BRANCH  31  32
ATOM     32  N   UNL     1      -2.614   6.765  -4.173  0.00  0.00    -0.087 NA
ATOM     33  C   UNL     1      -3.295   6.004  -3.186  0.00  0.00    +0.535 C 
ATOM     34  N   UNL     1      -4.029   6.668  -2.161  0.00  0.00    +0.135 NA
ATOM     35  N   UNL     1      -2.954   4.769  -3.016  0.00  0.00    +0.135 NA
ENDBRANCH  31  32
ENDBRANCH  30  31
ENDBRANCH  29  30
ENDBRANCH   1  29
TORSDOF 9
ENDMDL
MODEL 8
REMARK VINA RESULT:      -8.3      1.909      7.523
REMARK  Name = 
REMARK  9 active torsions:
REMARK  status: ('A' for Active; 'I' for Inactive)
REMARK    1  A    between atoms: C_6  and  C_8
REMARK    2  A    between atoms: C_8  and  C_9
REMARK    3  A    between atoms: C_8  and  N_16
REMARK    4  A    between atoms: C_9  and  C_10
REMARK    5  A    between atoms: C_10  and  C_11
REMARK    6  A    between atoms: C_11  and  N_12
REMARK    7  A    between atoms: N_16  and  S_17
REMARK    8  A    between atoms: S_17  and  C_20
REMARK    9  A    between atoms: C_31  and  C_32
REMARK                            x       y       z     vdW  Elec       q    Type
REMARK                         _______ _______ _______ _____ _____    ______ ____
ROOT
ATOM      1  C   UNL     1       3.727   6.331  -8.286  0.00  0.00    +0.174 C 
ENDROOT
BRANCH   1   7
ATOM      2  C   UNL     1       6.457   7.107 -14.351  0.00  0.00    +0.000 C 
ATOM      3  C   UNL     1       6.848   6.352 -12.958  0.00  0.00    +0.004 C 
ATOM      4  C   UNL     1       6.376   7.618 -12.065  0.00  0.00    +0.032 C 
ATOM      5  C   UNL     1       6.513   7.149 -10.495  0.00  0.00    +0.179 C 
ATOM      6  N   UNL     1       5.199   6.280 -10.576  0.00  0.00    -0.270 N 
ATOM      7  C   UNL     1       4.466   5.815  -9.610  0.00  0.00    +0.244 C 
ATOM      8  O   UNL     1       4.543   4.564  -9.345  0.00  0.00    -0.273 OA
ATOM      9  C   UNL     1       5.303   5.231 -11.614  0.00  0.00    +0.094 C 
ATOM     10  C   UNL     1       5.371   5.653 -12.969  0.00  0.00    +0.022 C 
BRANCH   5  11
ATOM     11  C   UNL     1       7.539   5.919 -10.736  0.00  0.00    +0.382 C 
ATOM     12  O   UNL     1       8.596   6.163 -11.579  0.00  0.00    -0.244 OA
ATOM     13  O   UNL     1       7.674   5.131  -9.794  0.00  0.00    -0.244 OA
ENDBRANCH   5  11
ENDBRANCH   1   7
BRANCH   1  14
ATOM     14  N   UNL     1       2.539   5.302  -8.271  0.00  0.00    -0.070 NA
BRANCH  14  15
ATOM     15  S   UNL     1       1.045   5.820  -8.463  0.00  0.00    +0.078 S 
ATOM     16  O   UNL     1       0.248   5.457  -9.675  0.00  0.00    -0.152 OA
ATOM     17  O   UNL     1       1.214   7.336  -8.567  0.00  0.00    -0.152 OA
BRANCH  15  18
ATOM     18  C   UNL     1      -0.127   5.557  -7.154  0.00  0.00    +0.138 A 
ATOM     19  C   UNL     1      -0.031   6.409  -6.052  0.00  0.00    +0.080 A 
ATOM     20  N   UNL     1       1.304   6.516  -5.541  0.00  0.00    -0.237 NA
ATOM     21  C   UNL     1       1.664   7.036  -4.294  0.00  0.00    +0.113 C 
ATOM     22  C   UNL     1       0.657   6.476  -3.137  0.00  0.00    +0.026 C 
ATOM     23  C   UNL     1      -0.678   7.124  -3.817  0.00  0.00    +0.029 C 
ATOM     24  C   UNL     1       0.476   4.993  -3.806  0.00  0.00    +0.002 C 
ATOM     25  C   UNL     1      -0.990   6.469  -5.064  0.00  0.00    -0.006 A 
ATOM     26  C   UNL     1      -2.244   5.930  -5.347  0.00  0.00    -0.003 A 
ATOM     27  C   UNL     1      -2.482   5.337  -6.564  0.00  0.00    +0.001 A 
ATOM     28  C   UNL     1      -1.463   5.306  -7.478  0.00  0.00    +0.021 A 
ENDBRANCH  15  18
ENDBRANCH  14  15
ENDBRANCH   1  14
BRANCH   1  29
ATOM     29  C   UNL     1       4.709   5.404  -7.330  0.00  0.00    +0.032 C 
BRANCH  29  30
ATOM     30  C   UNL     1       4.736   6.075  -5.992  0.00  0.00    +0.049 C 
BRANCH  30  31
ATOM     31  C   UNL     1       4.686   5.153  -4.816  0.00  0.00    +0.220 C 
BRANCH  31  32
ATOM     32  N   UNL     1       5.174   5.849  -3.650  0.00  0.00    -0.087 NA
ATOM     33  C   UNL     1       4.319   5.810  -2.517  0.00  0.00    +0.535 C 
ATOM     34  N   UNL     1       4.393   6.842  -1.538  0.00  0.00    +0.135 NA
ATOM     35  N   UNL     1       3.757   4.688  -2.206  0.00  0.00    +0.135 NA
ENDBRANCH  31  32
ENDBRANCH  30  31
ENDBRANCH  29  30
ENDBRANCH   1  29
TORSDOF 9
ENDMDL
MODEL 9
REMARK VINA RESULT:      -8.1      2.405      7.504
REMARK  Name = 
REMARK  9 active torsions:
REMARK  status: ('A' for Active; 'I' for Inactive)
REMARK    1  A    between atoms: C_6  and  C_8
REMARK    2  A    between atoms: C_8  and  C_9
REMARK    3  A    between atoms: C_8  and  N_16
REMARK    4  A    between atoms: C_9  and  C_10
REMARK    5  A    between atoms: C_10  and  C_11
REMARK    6  A    between atoms: C_11  and  N_12
REMARK    7  A    between atoms: N_16  and  S_17
REMARK    8  A    between atoms: S_17  and  C_20
REMARK    9  A    between atoms: C_31  and  C_32
REMARK                            x       y       z     vdW  Elec       q    Type
REMARK                         _______ _______ _______ _____ _____    ______ ____
ROOT
ATOM      1  C   UNL     1       1.562   6.068  -7.537  0.00  0.00    +0.174 C 
ENDROOT
BRANCH   1   7
ATOM      2  C   UNL     1       0.596   8.015 -13.871  0.00  0.00    +0.000 C 
ATOM      3  C   UNL     1       0.323   6.672 -12.984  0.00  0.00    +0.004 C 
ATOM      4  C   UNL     1       1.774   6.771 -12.272  0.00  0.00    +0.032 C 
ATOM      5  C   UNL     1       1.815   5.575 -11.143  0.00  0.00    +0.179 C 
ATOM      6  N   UNL     1       0.893   6.393 -10.157  0.00  0.00    -0.270 N 
ATOM      7  C   UNL     1       0.707   6.221  -8.883  0.00  0.00    +0.244 C 
ATOM      8  O   UNL     1      -0.398   5.696  -8.502  0.00  0.00    -0.273 OA
ATOM      9  C   UNL     1      -0.415   6.710 -10.770  0.00  0.00    +0.094 C 
ATOM     10  C   UNL     1      -0.423   7.607 -11.871  0.00  0.00    +0.022 C 
BRANCH   5  11
ATOM     11  C   UNL     1       0.626   4.667 -11.764  0.00  0.00    +0.382 C 
ATOM     12  O   UNL     1       0.763   4.301 -13.081  0.00  0.00    -0.244 OA
ATOM     13  O   UNL     1       0.050   3.912 -10.973  0.00  0.00    -0.244 OA
ENDBRANCH   5  11
ENDBRANCH   1   7
BRANCH   1  14
ATOM     14  N   UNL     1       0.511   5.266  -6.688  0.00  0.00    -0.070 NA
BRANCH  14  15
ATOM     15  S   UNL     1       0.058   5.823  -5.265  0.00  0.00    +0.078 S 
ATOM     16  O   UNL     1      -1.305   5.539  -4.719  0.00  0.00    -0.152 OA
ATOM     17  O   UNL     1       0.071   7.339  -5.466  0.00  0.00    -0.152 OA
BRANCH  15  18
ATOM     18  C   UNL     1       1.095   5.517  -3.856  0.00  0.00    +0.138 A 
ATOM     19  C   UNL     1       2.127   6.432  -3.632  0.00  0.00    +0.080 A 
ATOM     20  N   UNL     1       2.908   6.694  -4.806  0.00  0.00    -0.237 NA
ATOM     21  C   UNL     1       4.162   7.311  -4.834  0.00  0.00    +0.113 C 
ATOM     22  C   UNL     1       5.109   6.717  -3.643  0.00  0.00    +0.026 C 
ATOM     23  C   UNL     1       4.109   7.197  -2.445  0.00  0.00    +0.029 C 
ATOM     24  C   UNL     1       4.526   5.191  -3.740  0.00  0.00    +0.002 C 
ATOM     25  C   UNL     1       2.875   6.450  -2.475  0.00  0.00    -0.006 A 
ATOM     26  C   UNL     1       2.366   5.778  -1.365  0.00  0.00    -0.003 A 
ATOM     27  C   UNL     1       1.172   5.102  -1.455  0.00  0.00    +0.001 A 
ATOM     28  C   UNL     1       0.507   5.122  -2.652  0.00  0.00    +0.021 A 
ENDBRANCH  15  18
ENDBRANCH  14  15
ENDBRANCH   1  14
BRANCH   1  29
ATOM     29  C   UNL     1       2.311   4.713  -8.122  0.00  0.00    +0.032 C 
BRANCH  29  30
ATOM     30  C   UNL     1       3.773   4.902  -7.857  0.00  0.00    +0.049 C 
BRANCH  30  31
ATOM     31  C   UNL     1       4.644   4.908  -9.071  0.00  0.00    +0.220 C 
BRANCH  31  32
ATOM     32  N   UNL     1       4.765   6.260  -9.560  0.00  0.00    -0.087 NA
ATOM     33  C   UNL     1       5.549   6.415 -10.733  0.00  0.00    +0.535 C 
ATOM     34  N   UNL     1       6.180   7.664 -11.003  0.00  0.00    +0.135 NA
ATOM     35  N   UNL     1       5.391   5.569 -11.698  0.00  0.00    +0.135 NA
ENDBRANCH  31  32
ENDBRANCH  30  31
ENDBRANCH  29  30
ENDBRANCH   1  29
TORSDOF 9
ENDMDL
