MODEL 1
REMARK VINA RESULT:      -8.6      0.000      0.000
REMARK  Name = 
REMARK  6 active torsions:
REMARK  status: ('A' for Active; 'I' for Inactive)
REMARK    1  A    between atoms: O_2  and  C_3
REMARK    2  A    between atoms: C_6  and  C_7
REMARK    3  A    between atoms: C_7  and  C_9
REMARK    4  A    between atoms: C_9  and  C_10
REMARK    5  A    between atoms: C_10  and  C_12
REMARK    6  A    between atoms: C_15  and  C_16
REMARK                            x       y       z     vdW  Elec       q    Type
REMARK                         _______ _______ _______ _____ _____    ______ ____
ROOT
ATOM      1  C   UNL     1       3.414   5.384  -7.564  0.00  0.00    +0.181 C 
ATOM      2  O   UNL     1       3.596   6.142  -6.574  0.00  0.00    -0.291 OA
ENDROOT
BRANCH   1   3
ATOM      3  C   UNL     1       4.325   5.403  -8.687  0.00  0.00    +0.035 A 
ATOM      4  C   UNL     1       3.903   5.230  -9.990  0.00  0.00    +0.003 A 
ATOM      5  C   UNL     1       4.772   5.434 -11.054  0.00  0.00    -0.004 A 
ATOM      6  C   UNL     1       6.111   5.741 -10.843  0.00  0.00    -0.023 A 
ATOM      7  C   UNL     1       6.582   5.513  -9.559  0.00  0.00    -0.004 A 
ATOM      8  C   UNL     1       5.691   5.506  -8.492  0.00  0.00    +0.003 A 
BRANCH   6   9
ATOM      9  C   UNL     1       6.820   6.581 -11.833  0.00  0.00    +0.019 C 
ATOM     10  C   UNL     1       8.309   6.257 -11.892  0.00  0.00    +0.004 C 
ATOM     11  C   UNL     1       6.200   6.512 -13.203  0.00  0.00    +0.004 C 
ATOM     12  C   UNL     1       6.730   8.029 -11.371  0.00  0.00    +0.004 C 
ENDBRANCH   6   9
ENDBRANCH   1   3
BRANCH   1  13
ATOM     13  C   UNL     1       2.055   4.848  -7.780  0.00  0.00    +0.138 C 
BRANCH  13  14
ATOM     14  C   UNL     1       1.220   4.880  -6.555  0.00  0.00    +0.181 C 
ATOM     15  O   UNL     1       1.070   3.775  -5.954  0.00  0.00    -0.291 OA
BRANCH  14  19
ATOM     16  C   UNL     1      -2.180   6.616  -5.021  0.00  0.00    +0.139 A 
ATOM     17  C   UNL     1      -1.011   7.365  -4.951  0.00  0.00    +0.037 A 
ATOM     18  C   UNL     1       0.145   6.910  -5.573  0.00  0.00    +0.006 A 
ATOM     19  C   UNL     1       0.107   5.829  -6.434  0.00  0.00    +0.035 A 
ATOM     20  C   UNL     1      -1.161   5.429  -6.837  0.00  0.00    +0.006 A 
ATOM     21  C   UNL     1      -2.305   5.819  -6.152  0.00  0.00    +0.037 A 
BRANCH  16  23
ATOM     22  C   UNL     1      -3.107   5.358  -3.112  0.00  0.00    +0.252 C 
ATOM     23  O   UNL     1      -3.059   6.507  -3.946  0.00  0.00    -0.471 OA
ENDBRANCH  16  23
ENDBRANCH  14  19
ENDBRANCH  13  14
ENDBRANCH   1  13
TORSDOF 6
ENDMDL
MODEL 2
REMARK VINA RESULT:      -8.5      2.815      4.807
REMARK  Name = 
REMARK  6 active torsions:
REMARK  status: ('A' for Active; 'I' for Inactive)
REMARK    1  A    between atoms: O_2  and  C_3
REMARK    2  A    between atoms: C_6  and  C_7
REMARK    3  A    between atoms: C_7  and  C_9
REMARK    4  A    between atoms: C_9  and  C_10
REMARK    5  A    between atoms: C_10  and  C_12
REMARK    6  A    between atoms: C_15  and  C_16
REMARK                            x       y       z     vdW  Elec       q    Type
REMARK                         _______ _______ _______ _____ _____    ______ ____
ROOT
ATOM      1  C   UNL     1       2.571   5.753  -7.802  0.00  0.00    +0.181 C 
ATOM      2  O   UNL     1       2.335   6.752  -7.071  0.00  0.00    -0.291 OA
ENDROOT
BRANCH   1   3
ATOM      3  C   UNL     1       3.698   5.751  -8.708  0.00  0.00    +0.035 A 
ATOM      4  C   UNL     1       3.555   5.916 -10.072  0.00  0.00    +0.003 A 
ATOM      5  C   UNL     1       4.664   6.091 -10.889  0.00  0.00    -0.004 A 
ATOM      6  C   UNL     1       5.954   6.026 -10.377  0.00  0.00    -0.023 A 
ATOM      7  C   UNL     1       6.069   5.469  -9.112  0.00  0.00    -0.004 A 
ATOM      8  C   UNL     1       4.977   5.488  -8.252  0.00  0.00    +0.003 A 
BRANCH   6   9
ATOM      9  C   UNL     1       7.021   6.833 -11.011  0.00  0.00    +0.019 C 
ATOM     10  C   UNL     1       7.734   6.063 -12.117  0.00  0.00    +0.004 C 
ATOM     11  C   UNL     1       6.520   8.161 -11.515  0.00  0.00    +0.004 C 
ATOM     12  C   UNL     1       8.081   7.122  -9.957  0.00  0.00    +0.004 C 
ENDBRANCH   6   9
ENDBRANCH   1   3
BRANCH   1  13
ATOM     13  C   UNL     1       1.460   4.818  -8.070  0.00  0.00    +0.138 C 
BRANCH  13  14
ATOM     14  C   UNL     1       0.230   5.502  -8.537  0.00  0.00    +0.181 C 
ATOM     15  O   UNL     1      -0.767   5.450  -7.756  0.00  0.00    -0.291 OA
BRANCH  14  19
ATOM     16  C   UNL     1       0.862   5.990 -12.574  0.00  0.00    +0.139 A 
ATOM     17  C   UNL     1       0.476   4.723 -12.151  0.00  0.00    +0.037 A 
ATOM     18  C   UNL     1       0.106   4.513 -10.828  0.00  0.00    +0.006 A 
ATOM     19  C   UNL     1      -0.084   5.580  -9.969  0.00  0.00    +0.035 A 
ATOM     20  C   UNL     1      -0.155   6.829 -10.572  0.00  0.00    +0.006 A 
ATOM     21  C   UNL     1       0.301   7.046 -11.866  0.00  0.00    +0.037 A 
BRANCH  16  23
ATOM     22  C   UNL     1       2.716   5.126 -13.953  0.00  0.00    +0.252 C 
ATOM     23  O   UNL     1       1.892   6.186 -13.491  0.00  0.00    -0.471 OA
ENDBRANCH  16  23
ENDBRANCH  14  19
ENDBRANCH  13  14
ENDBRANCH   1  13
TORSDOF 6
ENDMDL
MODEL 3
REMARK VINA RESULT:      -8.2      2.125      8.824
REMARK  Name = 
REMARK  6 active torsions:
REMARK  status: ('A' for Active; 'I' for Inactive)
REMARK    1  A    between atoms: O_2  and  C_3
REMARK    2  A    between atoms: C_6  and  C_7
REMARK    3  A    between atoms: C_7  and  C_9
REMARK    4  A    between atoms: C_9  and  C_10
REMARK    5  A    between atoms: C_10  and  C_12
REMARK    6  A    between atoms: C_15  and  C_16
REMARK                            x       y       z     vdW  Elec       q    Type
REMARK                         _______ _______ _______ _____ _____    ______ ____
ROOT
ATOM      1  C   UNL     1       0.760   5.372  -8.931  0.00  0.00    +0.181 C 
ATOM      2  O   UNL     1       0.121   4.981  -9.944  0.00  0.00    -0.291 OA
ENDROOT
BRANCH   1   3
ATOM      3  C   UNL     1       0.138   5.386  -7.626  0.00  0.00    +0.035 A 
ATOM      4  C   UNL     1       0.867   5.320  -6.454  0.00  0.00    +0.003 A 
ATOM      5  C   UNL     1       0.256   5.519  -5.223  0.00  0.00    -0.004 A 
ATOM      6  C   UNL     1      -1.117   5.712  -5.121  0.00  0.00    -0.023 A 
ATOM      7  C   UNL     1      -1.854   5.376  -6.247  0.00  0.00    -0.004 A 
ATOM      8  C   UNL     1      -1.239   5.375  -7.493  0.00  0.00    +0.003 A 
BRANCH   6   9
ATOM      9  C   UNL     1      -1.645   6.551  -4.023  0.00  0.00    +0.019 C 
ATOM     10  C   UNL     1      -3.075   6.171  -3.655  0.00  0.00    +0.004 C 
ATOM     11  C   UNL     1      -0.756   6.543  -2.808  0.00  0.00    +0.004 C 
ATOM     12  C   UNL     1      -1.714   7.988  -4.522  0.00  0.00    +0.004 C 
ENDBRANCH   6   9
ENDBRANCH   1   3
BRANCH   1  13
ATOM     13  C   UNL     1       1.938   6.235  -9.150  0.00  0.00    +0.138 C 
BRANCH  13  14
ATOM     14  C   UNL     1       3.171   5.466  -9.443  0.00  0.00    +0.181 C 
ATOM     15  O   UNL     1       3.181   4.261  -9.053  0.00  0.00    -0.291 OA
BRANCH  14  19
ATOM     16  C   UNL     1       7.053   6.216 -10.583  0.00  0.00    +0.139 A 
ATOM     17  C   UNL     1       6.105   7.173 -10.927  0.00  0.00    +0.037 A 
ATOM     18  C   UNL     1       4.802   7.063 -10.457  0.00  0.00    +0.006 A 
ATOM     19  C   UNL     1       4.476   6.135  -9.486  0.00  0.00    +0.035 A 
ATOM     20  C   UNL     1       5.553   5.543  -8.838  0.00  0.00    +0.006 A 
ATOM     21  C   UNL     1       6.838   5.582  -9.364  0.00  0.00    +0.037 A 
BRANCH  16  23
ATOM     22  C   UNL     1       7.706   5.362 -12.803  0.00  0.00    +0.252 C 
ATOM     23  O   UNL     1       8.021   5.771 -11.480  0.00  0.00    -0.471 OA
ENDBRANCH  16  23
ENDBRANCH  14  19
ENDBRANCH  13  14
ENDBRANCH   1  13
TORSDOF 6
ENDMDL
MODEL 4
REMARK VINA RESULT:      -8.2      3.518      7.665
REMARK  Name = 
REMARK  6 active torsions:
REMARK  status: ('A' for Active; 'I' for Inactive)
REMARK    1  A    between atoms: O_2  and  C_3
REMARK    2  A    between atoms: C_6  and  C_7
REMARK    3  A    between atoms: C_7  and  C_9
REMARK    4  A    between atoms: C_9  and  C_10
REMARK    5  A    between atoms: C_10  and  C_12
REMARK    6  A    between atoms: C_15  and  C_16
REMARK                            x       y       z     vdW  Elec       q    Type
REMARK                         _______ _______ _______ _____ _____    ______ ____
ROOT
ATOM      1  C   UNL     1       1.948   5.058  -6.909  0.00  0.00    +0.181 C 
ATOM      2  O   UNL     1       1.987   4.094  -7.719  0.00  0.00    -0.291 OA
ENDROOT
BRANCH   1   3
ATOM      3  C   UNL     1       0.826   5.222  -6.011  0.00  0.00    +0.035 A 
ATOM      4  C   UNL     1       0.928   5.014  -4.649  0.00  0.00    +0.003 A 
ATOM      5  C   UNL     1      -0.114   5.354  -3.796  0.00  0.00    -0.004 A 
ATOM      6  C   UNL     1      -1.319   5.841  -4.288  0.00  0.00    -0.023 A 
ATOM      7  C   UNL     1      -1.528   5.659  -5.647  0.00  0.00    -0.004 A 
ATOM      8  C   UNL     1      -0.437   5.511  -6.495  0.00  0.00    +0.003 A 
BRANCH   6   9
ATOM      9  C   UNL     1      -2.102   6.788  -3.463  0.00  0.00    +0.019 C 
ATOM     10  C   UNL     1      -2.144   8.180  -4.082  0.00  0.00    +0.004 C 
ATOM     11  C   UNL     1      -3.491   6.287  -3.167  0.00  0.00    +0.004 C 
ATOM     12  C   UNL     1      -1.387   6.949  -2.128  0.00  0.00    +0.004 C 
ENDBRANCH   6   9
ENDBRANCH   1   3
BRANCH   1  13
ATOM     13  C   UNL     1       2.782   6.240  -7.204  0.00  0.00    +0.138 C 
BRANCH  13  14
ATOM     14  C   UNL     1       4.191   6.074  -6.772  0.00  0.00    +0.181 C 
ATOM     15  O   UNL     1       4.894   5.276  -7.460  0.00  0.00    -0.291 OA
BRANCH  14  19
ATOM     16  C   UNL     1       3.690   6.272  -2.692  0.00  0.00    +0.139 A 
ATOM     17  C   UNL     1       4.356   5.156  -3.186  0.00  0.00    +0.037 A 
ATOM     18  C   UNL     1       4.690   5.084  -4.533  0.00  0.00    +0.006 A 
ATOM     19  C   UNL     1       4.557   6.188  -5.355  0.00  0.00    +0.035 A 
ATOM     20  C   UNL     1       4.347   7.397  -4.704  0.00  0.00    +0.006 A 
ATOM     21  C   UNL     1       3.927   7.455  -3.381  0.00  0.00    +0.037 A 
BRANCH  16  23
ATOM     22  C   UNL     1       2.362   4.948  -1.089  0.00  0.00    +0.252 C 
ATOM     23  O   UNL     1       2.698   6.175  -1.719  0.00  0.00    -0.471 OA
ENDBRANCH  16  23
ENDBRANCH  14  19
ENDBRANCH  13  14
ENDBRANCH   1  13
TORSDOF 6
ENDMDL
MODEL 5
REMARK VINA RESULT:      -8.2      3.227      5.767
REMARK  Name = 
REMARK  6 active torsions:
REMARK  status: ('A' for Active; 'I' for Inactive)
REMARK    1  A    between atoms: O_2  and  C_3
REMARK    2  A    between atoms: C_6  and  C_7
REMARK    3  A    between atoms: C_7  and  C_9
REMARK    4  A    between atoms: C_9  and  C_10
REMARK    5  A    between atoms: C_10  and  C_12
REMARK    6  A    between atoms: C_15  and  C_16
REMARK                            x       y       z     vdW  Elec       q    Type
REMARK                         _______ _______ _______ _____ _____    ______ ____
ROOT
ATOM      1  C   UNL     1       3.717   5.603  -7.297  0.00  0.00    +0.181 C 
ATOM      2  O   UNL     1       4.604   5.724  -8.184  0.00  0.00    -0.291 OA
ENDROOT
BRANCH   1   3
ATOM      3  C   UNL     1       4.020   5.876  -5.909  0.00  0.00    +0.035 A 
ATOM      4  C   UNL     1       3.926   7.141  -5.363  0.00  0.00    +0.003 A 
ATOM      5  C   UNL     1       4.046   7.336  -3.993  0.00  0.00    -0.004 A 
ATOM      6  C   UNL     1       4.341   6.282  -3.137  0.00  0.00    -0.023 A 
ATOM      7  C   UNL     1       4.817   5.131  -3.747  0.00  0.00    -0.004 A 
ATOM      8  C   UNL     1       4.510   4.883  -5.079  0.00  0.00    +0.003 A 
BRANCH   6   9
ATOM      9  C   UNL     1       3.822   6.314  -1.752  0.00  0.00    +0.019 C 
ATOM     10  C   UNL     1       4.584   7.308  -0.882  0.00  0.00    +0.004 C 
ATOM     11  C   UNL     1       2.340   6.574  -1.694  0.00  0.00    +0.004 C 
ATOM     12  C   UNL     1       4.064   4.946  -1.128  0.00  0.00    +0.004 C 
ENDBRANCH   6   9
ENDBRANCH   1   3
BRANCH   1  13
ATOM     13  C   UNL     1       2.550   4.752  -7.601  0.00  0.00    +0.138 C 
BRANCH  13  14
ATOM     14  C   UNL     1       1.274   5.507  -7.620  0.00  0.00    +0.181 C 
ATOM     15  O   UNL     1       1.348   6.717  -7.992  0.00  0.00    -0.291 OA
BRANCH  14  19
ATOM     16  C   UNL     1      -1.635   6.171  -4.787  0.00  0.00    +0.139 A 
ATOM     17  C   UNL     1      -2.062   5.692  -6.019  0.00  0.00    +0.037 A 
ATOM     18  C   UNL     1      -1.132   5.309  -6.978  0.00  0.00    +0.006 A 
ATOM     19  C   UNL     1       0.209   5.199  -6.659  0.00  0.00    +0.035 A 
ATOM     20  C   UNL     1       0.505   5.221  -5.301  0.00  0.00    +0.006 A 
ATOM     21  C   UNL     1      -0.403   5.690  -4.360  0.00  0.00    +0.037 A 
BRANCH  16  23
ATOM     22  C   UNL     1      -2.279   7.342  -2.713  0.00  0.00    +0.252 C 
ATOM     23  O   UNL     1      -2.284   7.212  -4.127  0.00  0.00    -0.471 OA
ENDBRANCH  16  23
ENDBRANCH  14  19
ENDBRANCH  13  14
ENDBRANCH   1  13
TORSDOF 6
ENDMDL
MODEL 6
REMARK VINA RESULT:      -8.1      3.069      7.297
REMARK  Name = 
REMARK  6 active torsions:
REMARK  status: ('A' for Active; 'I' for Inactive)
REMARK    1  A    between atoms: O_2  and  C_3
REMARK    2  A    between atoms: C_6  and  C_7
REMARK    3  A    between atoms: C_7  and  C_9
REMARK    4  A    between atoms: C_9  and  C_10
REMARK    5  A    between atoms: C_10  and  C_12
REMARK    6  A    between atoms: C_15  and  C_16
REMARK                            x       y       z     vdW  Elec       q    Type
REMARK                         _______ _______ _______ _____ _____    ______ ____
ROOT
ATOM      1  C   UNL     1       3.108   5.253  -3.911  0.00  0.00    +0.181 C 
ATOM      2  O   UNL     1       3.169   4.876  -2.710  0.00  0.00    -0.291 OA
ENDROOT
BRANCH   1   3
ATOM      3  C   UNL     1       1.837   5.582  -4.517  0.00  0.00    +0.035 A 
ATOM      4  C   UNL     1       1.169   4.716  -5.361  0.00  0.00    +0.003 A 
ATOM      5  C   UNL     1      -0.127   4.987  -5.779  0.00  0.00    -0.004 A 
ATOM      6  C   UNL     1      -0.766   6.170  -5.429  0.00  0.00    -0.023 A 
ATOM      7  C   UNL     1       0.057   7.171  -4.934  0.00  0.00    -0.004 A 
ATOM      8  C   UNL     1       1.271   6.833  -4.348  0.00  0.00    +0.003 A 
BRANCH   6   9
ATOM      9  C   UNL     1      -2.238   6.172  -5.270  0.00  0.00    +0.019 C 
ATOM     10  C   UNL     1      -2.945   5.668  -6.523  0.00  0.00    +0.004 C 
ATOM     11  C   UNL     1      -2.690   5.411  -4.052  0.00  0.00    +0.004 C 
ATOM     12  C   UNL     1      -2.688   7.616  -5.093  0.00  0.00    +0.004 C 
ENDBRANCH   6   9
ENDBRANCH   1   3
BRANCH   1  13
ATOM     13  C   UNL     1       4.234   4.905  -4.800  0.00  0.00    +0.138 C 
BRANCH  13  14
ATOM     14  C   UNL     1       4.648   6.030  -5.674  0.00  0.00    +0.181 C 
ATOM     15  O   UNL     1       4.870   7.134  -5.092  0.00  0.00    -0.291 OA
BRANCH  14  19
ATOM     16  C   UNL     1       2.217   5.372  -8.927  0.00  0.00    +0.139 A 
ATOM     17  C   UNL     1       2.263   6.670  -8.435  0.00  0.00    +0.037 A 
ATOM     18  C   UNL     1       3.165   7.003  -7.431  0.00  0.00    +0.006 A 
ATOM     19  C   UNL     1       4.161   6.122  -7.054  0.00  0.00    +0.035 A 
ATOM     20  C   UNL     1       4.363   5.046  -7.910  0.00  0.00    +0.006 A 
ATOM     21  C   UNL     1       3.413   4.667  -8.850  0.00  0.00    +0.037 A 
BRANCH  16  23
ATOM     22  C   UNL     1       0.550   4.689 -10.613  0.00  0.00    +0.252 C 
ATOM     23  O   UNL     1       1.021   4.749  -9.274  0.00  0.00    -0.471 OA
ENDBRANCH  16  23
ENDBRANCH  14  19
ENDBRANCH  13  14
ENDBRANCH   1  13
TORSDOF 6
ENDMDL
MODEL 7
REMARK VINA RESULT:      -8.1      4.726      7.422
REMARK  Name = 
REMARK  6 active torsions:
REMARK  status: ('A' for Active; 'I' for Inactive)
REMARK    1  A    between atoms: O_2  and  C_3
REMARK    2  A    between atoms: C_6  and  C_7
REMARK    3  A    between atoms: C_7  and  C_9
REMARK    4  A    between atoms: C_9  and  C_10
REMARK    5  A    between atoms: C_10  and  C_12
REMARK    6  A    between atoms: C_15  and  C_16
REMARK                            x       y       z     vdW  Elec       q    Type
REMARK                         _______ _______ _______ _____ _____    ______ ____
ROOT
ATOM      1  C   UNL     1      -1.515   6.187  -0.866  0.00  0.00    +0.181 C 
ATOM      2  O   UNL     1      -1.968   6.071   0.304  0.00  0.00    -0.291 OA
ENDROOT
BRANCH   1   3
ATOM      3  C   UNL     1      -0.098   6.053  -1.126  0.00  0.00    +0.035 A 
ATOM      4  C   UNL     1       0.422   5.042  -1.911  0.00  0.00    +0.003 A 
ATOM      5  C   UNL     1       1.758   5.049  -2.288  0.00  0.00    -0.004 A 
ATOM      6  C   UNL     1       2.633   6.025  -1.827  0.00  0.00    -0.023 A 
ATOM      7  C   UNL     1       2.184   6.770  -0.746  0.00  0.00    -0.004 A 
ATOM      8  C   UNL     1       0.819   6.892  -0.517  0.00  0.00    +0.003 A 
BRANCH   6   9
ATOM      9  C   UNL     1       3.767   6.436  -2.684  0.00  0.00    +0.019 C 
ATOM     10  C   UNL     1       4.742   7.343  -1.940  0.00  0.00    +0.004 C 
ATOM     11  C   UNL     1       4.485   5.263  -3.298  0.00  0.00    +0.004 C 
ATOM     12  C   UNL     1       3.212   7.274  -3.828  0.00  0.00    +0.004 C 
ENDBRANCH   6   9
ENDBRANCH   1   3
BRANCH   1  13
ATOM     13  C   UNL     1      -2.339   6.908  -1.857  0.00  0.00    +0.138 C 
BRANCH  13  14
ATOM     14  C   UNL     1      -2.722   6.063  -3.014  0.00  0.00    +0.181 C 
ATOM     15  O   UNL     1      -2.937   4.840  -2.763  0.00  0.00    -0.291 OA
BRANCH  14  19
ATOM     16  C   UNL     1      -0.300   5.810  -6.330  0.00  0.00    +0.139 A 
ATOM     17  C   UNL     1      -1.619   5.403  -6.488  0.00  0.00    +0.037 A 
ATOM     18  C   UNL     1      -2.534   5.590  -5.459  0.00  0.00    +0.006 A 
ATOM     19  C   UNL     1      -2.211   6.360  -4.357  0.00  0.00    +0.035 A 
ATOM     20  C   UNL     1      -1.063   7.132  -4.481  0.00  0.00    +0.006 A 
ATOM     21  C   UNL     1      -0.111   6.878  -5.461  0.00  0.00    +0.037 A 
BRANCH  16  23
ATOM     22  C   UNL     1       1.581   4.246  -6.012  0.00  0.00    +0.252 C 
ATOM     23  O   UNL     1       0.771   5.075  -6.833  0.00  0.00    -0.471 OA
ENDBRANCH  16  23
ENDBRANCH  14  19
ENDBRANCH  13  14
ENDBRANCH   1  13
TORSDOF 6
ENDMDL
MODEL 8
REMARK VINA RESULT:      -8.1      2.841      4.015
REMARK  Name = 
REMARK  6 active torsions:
REMARK  status: ('A' for Active; 'I' for Inactive)
REMARK    1  A    between atoms: O_2  and  C_3
REMARK    2  A    between atoms: C_6  and  C_7
REMARK    3  A    between atoms: C_7  and  C_9
REMARK    4  A    between atoms: C_9  and  C_10
REMARK    5  A    between atoms: C_10  and  C_12
REMARK    6  A    between atoms: C_15  and  C_16
REMARK                            x       y       z     vdW  Elec       q    Type
REMARK                         _______ _______ _______ _____ _____    ______ ____
ROOT
ATOM      1  C   UNL     1       2.693   5.007  -8.049  0.00  0.00    +0.181 C 
ATOM      2  O   UNL     1       2.398   3.873  -7.585  0.00  0.00    -0.291 OA
ENDROOT
BRANCH   1   3
ATOM      3  C   UNL     1       3.879   5.188  -8.856  0.00  0.00    +0.035 A 
ATOM      4  C   UNL     1       3.846   5.183 -10.237  0.00  0.00    +0.003 A 
ATOM      5  C   UNL     1       4.966   5.539 -10.978  0.00  0.00    -0.004 A 
ATOM      6  C   UNL     1       6.175   5.835 -10.361  0.00  0.00    -0.023 A 
ATOM      7  C   UNL     1       6.281   5.445  -9.034  0.00  0.00    -0.004 A 
ATOM      8  C   UNL     1       5.130   5.284  -8.272  0.00  0.00    +0.003 A 
BRANCH   6   9
ATOM      9  C   UNL     1       7.088   6.809 -10.999  0.00  0.00    +0.019 C 
ATOM     10  C   UNL     1       7.877   6.183 -12.143  0.00  0.00    +0.004 C 
ATOM     11  C   UNL     1       6.379   8.057 -11.453  0.00  0.00    +0.004 C 
ATOM     12  C   UNL     1       8.123   7.230  -9.964  0.00  0.00    +0.004 C 
ENDBRANCH   6   9
ENDBRANCH   1   3
BRANCH   1  13
ATOM     13  C   UNL     1       2.111   6.193  -7.392  0.00  0.00    +0.138 C 
BRANCH  13  14
ATOM     14  C   UNL     1       2.114   6.094  -5.912  0.00  0.00    +0.181 C 
ATOM     15  O   UNL     1       1.120   6.608  -5.317  0.00  0.00    -0.291 OA
BRANCH  14  19
ATOM     16  C   UNL     1       4.747   6.872  -2.848  0.00  0.00    +0.139 A 
ATOM     17  C   UNL     1       4.418   5.540  -3.065  0.00  0.00    +0.037 A 
ATOM     18  C   UNL     1       3.650   5.182  -4.167  0.00  0.00    +0.006 A 
ATOM     19  C   UNL     1       3.377   6.098  -5.166  0.00  0.00    +0.035 A 
ATOM     20  C   UNL     1       4.131   7.264  -5.131  0.00  0.00    +0.006 A 
ATOM     21  C   UNL     1       4.824   7.657  -3.992  0.00  0.00    +0.037 A 
BRANCH  16  23
ATOM     22  C   UNL     1       3.743   7.249  -0.626  0.00  0.00    +0.252 C 
ATOM     23  O   UNL     1       4.786   7.431  -1.572  0.00  0.00    -0.471 OA
ENDBRANCH  16  23
ENDBRANCH  14  19
ENDBRANCH  13  14
ENDBRANCH   1  13
TORSDOF 6
ENDMDL
MODEL 9
REMARK VINA RESULT:      -7.9      2.471      3.342
REMARK  Name = 
REMARK  6 active torsions:
REMARK  status: ('A' for Active; 'I' for Inactive)
REMARK    1  A    between atoms: O_2  and  C_3
REMARK    2  A    between atoms: C_6  and  C_7
REMARK    3  A    between atoms: C_7  and  C_9
REMARK    4  A    between atoms: C_9  and  C_10
REMARK    5  A    between atoms: C_10  and  C_12
REMARK    6  A    between atoms: C_15  and  C_16
REMARK                            x       y       z     vdW  Elec       q    Type
REMARK                         _______ _______ _______ _____ _____    ______ ____
ROOT
ATOM      1  C   UNL     1       2.431   7.338  -8.114  0.00  0.00    +0.181 C 
ATOM      2  O   UNL     1       2.012   8.500  -7.864  0.00  0.00    -0.291 OA
ENDROOT
BRANCH   1   3
ATOM      3  C   UNL     1       2.177   6.721  -9.396  0.00  0.00    +0.035 A 
ATOM      4  C   UNL     1       0.903   6.577  -9.912  0.00  0.00    +0.003 A 
ATOM      5  C   UNL     1       0.708   6.148 -11.219  0.00  0.00    -0.004 A 
ATOM      6  C   UNL     1       1.778   5.774 -12.023  0.00  0.00    -0.023 A 
ATOM      7  C   UNL     1       2.975   5.549 -11.360  0.00  0.00    -0.004 A 
ATOM      8  C   UNL     1       3.204   6.157 -10.132  0.00  0.00    +0.003 A 
BRANCH   6   9
ATOM      9  C   UNL     1       1.683   5.978 -13.486  0.00  0.00    +0.019 C 
ATOM     10  C   UNL     1       0.919   7.251 -13.833  0.00  0.00    +0.004 C 
ATOM     11  C   UNL     1       3.028   5.955 -14.163  0.00  0.00    +0.004 C 
ATOM     12  C   UNL     1       0.866   4.832 -14.067  0.00  0.00    +0.004 C 
ENDBRANCH   6   9
ENDBRANCH   1   3
BRANCH   1  13
ATOM     13  C   UNL     1       2.751   6.461  -6.970  0.00  0.00    +0.138 C 
BRANCH  13  14
ATOM     14  C   UNL     1       1.622   5.580  -6.585  0.00  0.00    +0.181 C 
ATOM     15  O   UNL     1       1.663   4.395  -7.032  0.00  0.00    -0.291 OA
BRANCH  14  19
ATOM     16  C   UNL     1      -2.177   5.921  -5.041  0.00  0.00    +0.139 A 
ATOM     17  C   UNL     1      -1.274   6.923  -4.705  0.00  0.00    +0.037 A 
ATOM     18  C   UNL     1      -0.018   6.956  -5.298  0.00  0.00    +0.006 A 
ATOM     19  C   UNL     1       0.281   6.134  -6.369  0.00  0.00    +0.035 A 
ATOM     20  C   UNL     1      -0.807   5.508  -6.965  0.00  0.00    +0.006 A 
ATOM     21  C   UNL     1      -2.035   5.403  -6.323  0.00  0.00    +0.037 A 
BRANCH  16  23
ATOM     22  C   UNL     1      -3.324   5.945  -2.857  0.00  0.00    +0.252 C 
ATOM     23  O   UNL     1      -3.018   5.331  -4.101  0.00  0.00    -0.471 OA
ENDBRANCH  16  23
ENDBRANCH  14  19
ENDBRANCH  13  14
ENDBRANCH   1  13
TORSDOF 6
ENDMDL
