MODEL 1
REMARK VINA RESULT:      -8.3      0.000      0.000
REMARK  Name = 
REMARK  3 active torsions:
REMARK  status: ('A' for Active; 'I' for Inactive)
REMARK    1  A    between atoms: C_7  and  C_8
REMARK    2  A    between atoms: N_13  and  C_14
REMARK    3  A    between atoms: C_14  and  C_15
REMARK                            x       y       z     vdW  Elec       q    Type
REMARK                         _______ _______ _______ _____ _____    ______ ____
ROOT
ATOM      1  C   UNL     1       3.860   5.764 -10.429  0.00  0.00    +0.080 C 
ATOM      2  C   UNL     1       2.478   6.198 -10.615  0.00  0.00    +0.032 A 
ATOM      3  C   UNL     1       1.481   6.068  -9.660  0.00  0.00    +0.053 A 
ATOM      4  C   UNL     1       0.221   6.501 -10.032  0.00  0.00    +0.016 A 
ATOM      5  C   UNL     1      -0.089   6.669 -11.377  0.00  0.00    +0.013 A 
ATOM      6  C   UNL     1       0.879   6.572 -12.368  0.00  0.00    +0.058 A 
ATOM      7 CL   UNL     1       0.369   5.937 -13.928  0.00  0.00    -0.082 Cl
ATOM      8  N   UNL     1       1.518   5.401  -8.400  0.00  0.00    -0.276 N 
ATOM      9  C   UNL     1       2.542   4.481  -8.002  0.00  0.00    +0.090 C 
ATOM     10  S   UNL     1       2.248   3.692  -6.594  0.00  0.00    -0.037 S 
ATOM     11  C   UNL     1       3.671   3.920  -8.771  0.00  0.00    +0.174 C 
ATOM     12  C   UNL     1       2.200   6.504 -11.941  0.00  0.00    +0.014 A 
ATOM     13  N   UNL     1       4.341   4.914  -9.596  0.00  0.00    -0.264 NA
ENDROOT
BRANCH   1  16
ATOM     14  F   UNL     1       4.826   4.574 -12.786  0.00  0.00    -0.204 F 
ATOM     15  C   UNL     1       5.358   5.756 -12.358  0.00  0.00    +0.142 A 
ATOM     16  C   UNL     1       4.786   6.479 -11.319  0.00  0.00    +0.045 A 
ATOM     17  C   UNL     1       5.545   7.552 -10.868  0.00  0.00    +0.004 A 
ATOM     18  C   UNL     1       6.909   7.632 -11.115  0.00  0.00    +0.000 A 
ATOM     19  C   UNL     1       7.502   6.780 -12.024  0.00  0.00    +0.002 A 
ATOM     20  C   UNL     1       6.634   6.049 -12.824  0.00  0.00    +0.030 A 
ENDBRANCH   1  16
BRANCH   8  21
ATOM     21  C   UNL     1       0.301   5.456  -7.634  0.00  0.00    +0.200 C 
BRANCH  21  22
ATOM     22  C   UNL     1       0.356   6.418  -6.483  0.00  0.00    +0.416 C 
ATOM     23  F   UNL     1       1.128   7.535  -6.749  0.00  0.00    -0.168 F 
ATOM     24  F   UNL     1       0.754   5.804  -5.319  0.00  0.00    -0.168 F 
ATOM     25  F   UNL     1      -0.938   6.888  -6.282  0.00  0.00    -0.168 F 
ENDBRANCH  21  22
ENDBRANCH   8  21
TORSDOF 3
ENDMDL
MODEL 2
REMARK VINA RESULT:      -8.1      4.060      8.003
REMARK  Name = 
REMARK  3 active torsions:
REMARK  status: ('A' for Active; 'I' for Inactive)
REMARK    1  A    between atoms: C_7  and  C_8
REMARK    2  A    between atoms: N_13  and  C_14
REMARK    3  A    between atoms: C_14  and  C_15
REMARK                            x       y       z     vdW  Elec       q    Type
REMARK                         _______ _______ _______ _____ _____    ______ ____
ROOT
ATOM      1  C   UNL     1       0.874   5.871  -4.921  0.00  0.00    +0.080 C 
ATOM      2  C   UNL     1       2.167   6.549  -4.923  0.00  0.00    +0.032 A 
ATOM      3  C   UNL     1       3.103   6.447  -5.942  0.00  0.00    +0.053 A 
ATOM      4  C   UNL     1       4.290   7.131  -5.749  0.00  0.00    +0.016 A 
ATOM      5  C   UNL     1       4.658   7.541  -4.473  0.00  0.00    +0.013 A 
ATOM      6  C   UNL     1       3.793   7.432  -3.391  0.00  0.00    +0.058 A 
ATOM      7 CL   UNL     1       4.515   7.123  -1.816  0.00  0.00    -0.082 Cl
ATOM      8  N   UNL     1       3.097   5.607  -7.094  0.00  0.00    -0.276 N 
ATOM      9  C   UNL     1       2.225   4.483  -7.270  0.00  0.00    +0.090 C 
ATOM     10  S   UNL     1       2.555   3.557  -8.584  0.00  0.00    -0.037 S 
ATOM     11  C   UNL     1       1.269   3.862  -6.332  0.00  0.00    +0.174 C 
ATOM     12  C   UNL     1       2.479   7.086  -3.681  0.00  0.00    +0.014 A 
ATOM     13  N   UNL     1       0.494   4.842  -5.586  0.00  0.00    -0.264 NA
ENDROOT
BRANCH   1  16
ATOM     14  F   UNL     1       0.097   4.751  -2.462  0.00  0.00    -0.204 F 
ATOM     15  C   UNL     1      -0.566   5.840  -2.948  0.00  0.00    +0.142 A 
ATOM     16  C   UNL     1      -0.099   6.545  -4.049  0.00  0.00    +0.045 A 
ATOM     17  C   UNL     1      -0.977   7.502  -4.545  0.00  0.00    +0.004 A 
ATOM     18  C   UNL     1      -2.336   7.458  -4.260  0.00  0.00    +0.000 A 
ATOM     19  C   UNL     1      -2.813   6.614  -3.279  0.00  0.00    +0.002 A 
ATOM     20  C   UNL     1      -1.854   6.031  -2.461  0.00  0.00    +0.030 A 
ENDBRANCH   1  16
BRANCH   8  21
ATOM     21  C   UNL     1       4.229   5.750  -7.970  0.00  0.00    +0.200 C 
BRANCH  21  22
ATOM     22  C   UNL     1       3.946   6.577  -9.190  0.00  0.00    +0.416 C 
ATOM     23  F   UNL     1       3.167   7.688  -8.921  0.00  0.00    -0.168 F 
ATOM     24  F   UNL     1       3.406   5.827 -10.208  0.00  0.00    -0.168 F 
ATOM     25  F   UNL     1       5.167   7.070  -9.641  0.00  0.00    -0.168 F 
ENDBRANCH  21  22
ENDBRANCH   8  21
TORSDOF 3
ENDMDL
MODEL 3
REMARK VINA RESULT:      -8.0      5.213      7.787
REMARK  Name = 
REMARK  3 active torsions:
REMARK  status: ('A' for Active; 'I' for Inactive)
REMARK    1  A    between atoms: C_7  and  C_8
REMARK    2  A    between atoms: N_13  and  C_14
REMARK    3  A    between atoms: C_14  and  C_15
REMARK                            x       y       z     vdW  Elec       q    Type
REMARK                         _______ _______ _______ _____ _____    ______ ____
ROOT
ATOM      1  C   UNL     1       2.180   6.496  -2.583  0.00  0.00    +0.080 C 
ATOM      2  C   UNL     1       2.158   6.785  -4.014  0.00  0.00    +0.032 A 
ATOM      3  C   UNL     1       1.005   6.842  -4.783  0.00  0.00    +0.053 A 
ATOM      4  C   UNL     1       1.185   7.091  -6.132  0.00  0.00    +0.016 A 
ATOM      5  C   UNL     1       2.431   6.893  -6.717  0.00  0.00    +0.013 A 
ATOM      6  C   UNL     1       3.558   6.606  -5.957  0.00  0.00    +0.058 A 
ATOM      7 CL   UNL     1       4.775   5.566  -6.690  0.00  0.00    -0.082 Cl
ATOM      8  N   UNL     1      -0.338   6.520  -4.427  0.00  0.00    -0.276 N 
ATOM      9  C   UNL     1      -0.708   5.794  -3.247  0.00  0.00    +0.090 C 
ATOM     10  S   UNL     1      -2.292   5.372  -3.170  0.00  0.00    -0.037 S 
ATOM     11  C   UNL     1       0.134   5.125  -2.236  0.00  0.00    +0.174 C 
ATOM     12  C   UNL     1       3.425   6.727  -4.579  0.00  0.00    +0.014 A 
ATOM     13  N   UNL     1       1.296   5.915  -1.857  0.00  0.00    -0.264 NA
ENDROOT
BRANCH   1  16
ATOM     14  F   UNL     1       4.003   4.776  -1.310  0.00  0.00    -0.204 F 
ATOM     15  C   UNL     1       4.140   6.126  -1.173  0.00  0.00    +0.142 A 
ATOM     16  C   UNL     1       3.393   7.015  -1.936  0.00  0.00    +0.045 A 
ATOM     17  C   UNL     1       3.497   8.346  -1.549  0.00  0.00    +0.004 A 
ATOM     18  C   UNL     1       3.938   8.702  -0.281  0.00  0.00    +0.000 A 
ATOM     19  C   UNL     1       4.519   7.760   0.542  0.00  0.00    +0.002 A 
ATOM     20  C   UNL     1       4.851   6.553  -0.058  0.00  0.00    +0.030 A 
ENDBRANCH   1  16
BRANCH   8  21
ATOM     21  C   UNL     1      -1.314   6.695  -5.468  0.00  0.00    +0.200 C 
BRANCH  21  22
ATOM     22  C   UNL     1      -1.480   5.490  -6.347  0.00  0.00    +0.416 C 
ATOM     23  F   UNL     1      -2.775   5.001  -6.355  0.00  0.00    -0.168 F 
ATOM     24  F   UNL     1      -0.577   4.500  -6.039  0.00  0.00    -0.168 F 
ATOM     25  F   UNL     1      -1.219   5.897  -7.652  0.00  0.00    -0.168 F 
ENDBRANCH  21  22
ENDBRANCH   8  21
TORSDOF 3
ENDMDL
MODEL 4
REMARK VINA RESULT:      -8.0      5.835      8.220
REMARK  Name = 
REMARK  3 active torsions:
REMARK  status: ('A' for Active; 'I' for Inactive)
REMARK    1  A    between atoms: C_7  and  C_8
REMARK    2  A    between atoms: N_13  and  C_14
REMARK    3  A    between atoms: C_14  and  C_15
REMARK                            x       y       z     vdW  Elec       q    Type
REMARK                         _______ _______ _______ _____ _____    ______ ____
ROOT
ATOM      1  C   UNL     1       2.273   6.530  -2.024  0.00  0.00    +0.080 C 
ATOM      2  C   UNL     1       2.167   6.760  -3.462  0.00  0.00    +0.032 A 
ATOM      3  C   UNL     1       0.978   6.722  -4.175  0.00  0.00    +0.053 A 
ATOM      4  C   UNL     1       1.080   6.926  -5.540  0.00  0.00    +0.016 A 
ATOM      5  C   UNL     1       2.307   6.776  -6.177  0.00  0.00    +0.013 A 
ATOM      6  C   UNL     1       3.483   6.583  -5.464  0.00  0.00    +0.058 A 
ATOM      7 CL   UNL     1       4.722   5.585  -6.216  0.00  0.00    -0.082 Cl
ATOM      8  N   UNL     1      -0.326   6.340  -3.741  0.00  0.00    -0.276 N 
ATOM      9  C   UNL     1      -0.598   5.641  -2.519  0.00  0.00    +0.090 C 
ATOM     10  S   UNL     1      -2.149   5.134  -2.349  0.00  0.00    -0.037 S 
ATOM     11  C   UNL     1       0.328   5.061  -1.527  0.00  0.00    +0.174 C 
ATOM     12  C   UNL     1       3.407   6.751  -4.086  0.00  0.00    +0.014 A 
ATOM     13  N   UNL     1       1.459   5.929  -1.234  0.00  0.00    -0.264 NA
ENDROOT
BRANCH   1  16
ATOM     14  F   UNL     1       4.267   4.962  -0.812  0.00  0.00    -0.204 F 
ATOM     15  C   UNL     1       4.324   6.322  -0.715  0.00  0.00    +0.142 A 
ATOM     16  C   UNL     1       3.482   7.141  -1.456  0.00  0.00    +0.045 A 
ATOM     17  C   UNL     1       3.522   8.486  -1.108  0.00  0.00    +0.004 A 
ATOM     18  C   UNL     1       4.005   8.903   0.126  0.00  0.00    +0.000 A 
ATOM     19  C   UNL     1       4.689   8.023   0.938  0.00  0.00    +0.002 A 
ATOM     20  C   UNL     1       5.065   6.822   0.349  0.00  0.00    +0.030 A 
ENDBRANCH   1  16
BRANCH   8  21
ATOM     21  C   UNL     1      -1.358   6.418  -4.740  0.00  0.00    +0.200 C 
BRANCH  21  22
ATOM     22  C   UNL     1      -2.182   7.670  -4.658  0.00  0.00    +0.416 C 
ATOM     23  F   UNL     1      -1.429   8.822  -4.800  0.00  0.00    -0.168 F 
ATOM     24  F   UNL     1      -2.943   7.712  -3.513  0.00  0.00    -0.168 F 
ATOM     25  F   UNL     1      -3.059   7.653  -5.738  0.00  0.00    -0.168 F 
ENDBRANCH  21  22
ENDBRANCH   8  21
TORSDOF 3
ENDMDL
MODEL 5
REMARK VINA RESULT:      -7.8      4.206      7.104
REMARK  Name = 
REMARK  3 active torsions:
REMARK  status: ('A' for Active; 'I' for Inactive)
REMARK    1  A    between atoms: C_7  and  C_8
REMARK    2  A    between atoms: N_13  and  C_14
REMARK    3  A    between atoms: C_14  and  C_15
REMARK                            x       y       z     vdW  Elec       q    Type
REMARK                         _______ _______ _______ _____ _____    ______ ____
ROOT
ATOM      1  C   UNL     1       2.972   6.029  -4.345  0.00  0.00    +0.080 C 
ATOM      2  C   UNL     1       1.660   5.802  -4.945  0.00  0.00    +0.032 A 
ATOM      3  C   UNL     1       1.458   5.257  -6.204  0.00  0.00    +0.053 A 
ATOM      4  C   UNL     1       0.143   5.155  -6.620  0.00  0.00    +0.016 A 
ATOM      5  C   UNL     1      -0.846   5.906  -5.995  0.00  0.00    +0.013 A 
ATOM      6  C   UNL     1      -0.588   6.645  -4.847  0.00  0.00    +0.058 A 
ATOM      7 CL   UNL     1      -1.492   8.140  -4.636  0.00  0.00    -0.082 Cl
ATOM      8  N   UNL     1       2.413   4.934  -7.213  0.00  0.00    -0.276 N 
ATOM      9  C   UNL     1       3.774   5.383  -7.211  0.00  0.00    +0.090 C 
ATOM     10  S   UNL     1       4.610   5.049  -8.584  0.00  0.00    -0.037 S 
ATOM     11  C   UNL     1       4.464   6.329  -6.312  0.00  0.00    +0.174 C 
ATOM     12  C   UNL     1       0.646   6.437  -4.241  0.00  0.00    +0.014 A 
ATOM     13  N   UNL     1       4.118   6.131  -4.912  0.00  0.00    -0.264 NA
ENDROOT
BRANCH   1  16
ATOM     14  F   UNL     1       3.464   8.425  -2.960  0.00  0.00    -0.204 F 
ATOM     15  C   UNL     1       3.340   7.257  -2.267  0.00  0.00    +0.142 A 
ATOM     16  C   UNL     1       2.903   6.089  -2.879  0.00  0.00    +0.045 A 
ATOM     17  C   UNL     1       3.015   4.944  -2.098  0.00  0.00    +0.004 A 
ATOM     18  C   UNL     1       3.872   4.890  -1.006  0.00  0.00    +0.000 A 
ATOM     19  C   UNL     1       4.446   6.045  -0.516  0.00  0.00    +0.002 A 
ATOM     20  C   UNL     1       3.927   7.235  -1.007  0.00  0.00    +0.030 A 
ENDBRANCH   1  16
BRANCH   8  21
ATOM     21  C   UNL     1       1.871   4.371  -8.421  0.00  0.00    +0.200 C 
BRANCH  21  22
ATOM     22  C   UNL     1       1.363   5.398  -9.390  0.00  0.00    +0.416 C 
ATOM     23  F   UNL     1       1.643   6.695  -8.998  0.00  0.00    -0.168 F 
ATOM     24  F   UNL     1       0.024   5.237  -9.657  0.00  0.00    -0.168 F 
ATOM     25  F   UNL     1       2.049   5.205 -10.586  0.00  0.00    -0.168 F 
ENDBRANCH  21  22
ENDBRANCH   8  21
TORSDOF 3
ENDMDL
MODEL 6
REMARK VINA RESULT:      -7.5      4.862      7.053
REMARK  Name = 
REMARK  3 active torsions:
REMARK  status: ('A' for Active; 'I' for Inactive)
REMARK    1  A    between atoms: C_7  and  C_8
REMARK    2  A    between atoms: N_13  and  C_14
REMARK    3  A    between atoms: C_14  and  C_15
REMARK                            x       y       z     vdW  Elec       q    Type
REMARK                         _______ _______ _______ _____ _____    ______ ____
ROOT
ATOM      1  C   UNL     1       1.666   5.838  -5.422  0.00  0.00    +0.080 C 
ATOM      2  C   UNL     1       1.643   5.541  -3.992  0.00  0.00    +0.032 A 
ATOM      3  C   UNL     1       0.578   5.829  -3.150  0.00  0.00    +0.053 A 
ATOM      4  C   UNL     1       0.755   5.511  -1.815  0.00  0.00    +0.016 A 
ATOM      5  C   UNL     1       2.034   5.302  -1.312  0.00  0.00    +0.013 A 
ATOM      6  C   UNL     1       3.145   5.240  -2.142  0.00  0.00    +0.058 A 
ATOM      7 CL   UNL     1       4.667   5.837  -1.490  0.00  0.00    -0.082 Cl
ATOM      8  N   UNL     1      -0.617   6.559  -3.420  0.00  0.00    -0.276 N 
ATOM      9  C   UNL     1      -0.815   7.386  -4.574  0.00  0.00    +0.090 C 
ATOM     10  S   UNL     1      -2.191   8.280  -4.550  0.00  0.00    -0.037 S 
ATOM     11  C   UNL     1       0.130   7.782  -5.637  0.00  0.00    +0.174 C 
ATOM     12  C   UNL     1       2.897   5.193  -3.509  0.00  0.00    +0.014 A 
ATOM     13  N   UNL     1       0.964   6.678  -6.090  0.00  0.00    -0.264 NA
ENDROOT
BRANCH   1  16
ATOM     14  F   UNL     1       4.249   6.743  -6.064  0.00  0.00    -0.204 F 
ATOM     15  C   UNL     1       3.797   5.566  -6.584  0.00  0.00    +0.142 A 
ATOM     16  C   UNL     1       2.616   4.981  -6.145  0.00  0.00    +0.045 A 
ATOM     17  C   UNL     1       2.187   3.895  -6.900  0.00  0.00    +0.004 A 
ATOM     18  C   UNL     1       2.635   3.691  -8.199  0.00  0.00    +0.000 A 
ATOM     19  C   UNL     1       3.703   4.414  -8.687  0.00  0.00    +0.002 A 
ATOM     20  C   UNL     1       4.426   5.137  -7.747  0.00  0.00    +0.030 A 
ENDBRANCH   1  16
BRANCH   8  21
ATOM     21  C   UNL     1      -1.534   6.675  -2.318  0.00  0.00    +0.200 C 
BRANCH  21  22
ATOM     22  C   UNL     1      -2.674   5.700  -2.378  0.00  0.00    +0.416 C 
ATOM     23  F   UNL     1      -2.527   4.757  -3.379  0.00  0.00    -0.168 F 
ATOM     24  F   UNL     1      -3.890   6.335  -2.468  0.00  0.00    -0.168 F 
ATOM     25  F   UNL     1      -2.665   4.989  -1.181  0.00  0.00    -0.168 F 
ENDBRANCH  21  22
ENDBRANCH   8  21
TORSDOF 3
ENDMDL
MODEL 7
REMARK VINA RESULT:      -7.5      3.250      7.179
REMARK  Name = 
REMARK  3 active torsions:
REMARK  status: ('A' for Active; 'I' for Inactive)
REMARK    1  A    between atoms: C_7  and  C_8
REMARK    2  A    between atoms: N_13  and  C_14
REMARK    3  A    between atoms: C_14  and  C_15
REMARK                            x       y       z     vdW  Elec       q    Type
REMARK                         _______ _______ _______ _____ _____    ______ ____
ROOT
ATOM      1  C   UNL     1       0.506   5.877  -7.136  0.00  0.00    +0.080 C 
ATOM      2  C   UNL     1       1.918   6.069  -6.818  0.00  0.00    +0.032 A 
ATOM      3  C   UNL     1       2.898   6.370  -7.753  0.00  0.00    +0.053 A 
ATOM      4  C   UNL     1       4.189   6.475  -7.269  0.00  0.00    +0.016 A 
ATOM      5  C   UNL     1       4.518   5.926  -6.035  0.00  0.00    +0.013 A 
ATOM      6  C   UNL     1       3.550   5.409  -5.183  0.00  0.00    +0.058 A 
ATOM      7 CL   UNL     1       4.017   4.046  -4.172  0.00  0.00    -0.082 Cl
ATOM      8  N   UNL     1       2.803   6.427  -9.175  0.00  0.00    -0.276 N 
ATOM      9  C   UNL     1       1.708   5.899  -9.934  0.00  0.00    +0.090 C 
ATOM     10  S   UNL     1       1.933   5.904 -11.559  0.00  0.00    -0.037 S 
ATOM     11  C   UNL     1       0.543   5.103  -9.499  0.00  0.00    +0.174 C 
ATOM     12  C   UNL     1       2.226   5.650  -5.530  0.00  0.00    +0.014 A 
ATOM     13  N   UNL     1      -0.043   5.592  -8.260  0.00  0.00    -0.264 NA
ENDROOT
BRANCH   1  16
ATOM     14  F   UNL     1      -1.968   4.568  -6.869  0.00  0.00    -0.204 F 
ATOM     15  C   UNL     1      -1.636   5.570  -6.004  0.00  0.00    +0.142 A 
ATOM     16  C   UNL     1      -0.357   6.109  -5.969  0.00  0.00    +0.045 A 
ATOM     17  C   UNL     1      -0.224   7.246  -5.181  0.00  0.00    +0.004 A 
ATOM     18  C   UNL     1      -1.324   8.017  -4.827  0.00  0.00    +0.000 A 
ATOM     19  C   UNL     1      -2.602   7.542  -5.036  0.00  0.00    +0.002 A 
ATOM     20  C   UNL     1      -2.701   6.197  -5.368  0.00  0.00    +0.030 A 
ENDBRANCH   1  16
BRANCH   8  21
ATOM     21  C   UNL     1       4.017   6.779  -9.862  0.00  0.00    +0.200 C 
BRANCH  21  22
ATOM     22  C   UNL     1       4.914   5.607 -10.137  0.00  0.00    +0.416 C 
ATOM     23  F   UNL     1       6.116   5.675  -9.455  0.00  0.00    -0.168 F 
ATOM     24  F   UNL     1       5.118   5.420 -11.484  0.00  0.00    -0.168 F 
ATOM     25  F   UNL     1       4.266   4.474  -9.655  0.00  0.00    -0.168 F 
ENDBRANCH  21  22
ENDBRANCH   8  21
TORSDOF 3
ENDMDL
MODEL 8
REMARK VINA RESULT:      -7.3      2.667      6.385
REMARK  Name = 
REMARK  3 active torsions:
REMARK  status: ('A' for Active; 'I' for Inactive)
REMARK    1  A    between atoms: C_7  and  C_8
REMARK    2  A    between atoms: N_13  and  C_14
REMARK    3  A    between atoms: C_14  and  C_15
REMARK                            x       y       z     vdW  Elec       q    Type
REMARK                         _______ _______ _______ _____ _____    ______ ____
ROOT
ATOM      1  C   UNL     1       3.836   5.779 -10.158  0.00  0.00    +0.080 C 
ATOM      2  C   UNL     1       3.413   5.717 -11.554  0.00  0.00    +0.032 A 
ATOM      3  C   UNL     1       4.275   5.552 -12.628  0.00  0.00    +0.053 A 
ATOM      4  C   UNL     1       3.694   5.558 -13.883  0.00  0.00    +0.016 A 
ATOM      5  C   UNL     1       2.421   6.089 -14.058  0.00  0.00    +0.013 A 
ATOM      6  C   UNL     1       1.633   6.472 -12.980  0.00  0.00    +0.058 A 
ATOM      7 CL   UNL     1       0.546   7.835 -13.226  0.00  0.00    -0.082 Cl
ATOM      8  N   UNL     1       5.701   5.541 -12.648  0.00  0.00    -0.276 N 
ATOM      9  C   UNL     1       6.529   5.986 -11.565  0.00  0.00    +0.090 C 
ATOM     10  S   UNL     1       8.130   6.067 -11.913  0.00  0.00    -0.037 S 
ATOM     11  C   UNL     1       6.163   6.644 -10.295  0.00  0.00    +0.174 C 
ATOM     12  C   UNL     1       2.092   6.114 -11.718  0.00  0.00    +0.014 A 
ATOM     13  N   UNL     1       4.991   6.051  -9.669  0.00  0.00    -0.264 NA
ENDROOT
BRANCH   1  16
ATOM     14  F   UNL     1       2.535   7.726  -8.603  0.00  0.00    -0.204 F 
ATOM     15  C   UNL     1       2.289   6.403  -8.374  0.00  0.00    +0.142 A 
ATOM     16  C   UNL     1       2.749   5.417  -9.237  0.00  0.00    +0.045 A 
ATOM     17  C   UNL     1       2.593   4.116  -8.773  0.00  0.00    +0.004 A 
ATOM     18  C   UNL     1       2.410   3.844  -7.424  0.00  0.00    +0.000 A 
ATOM     19  C   UNL     1       2.129   4.865  -6.540  0.00  0.00    +0.002 A 
ATOM     20  C   UNL     1       1.803   6.088  -7.111  0.00  0.00    +0.030 A 
ENDBRANCH   1  16
BRANCH   8  21
ATOM     21  C   UNL     1       6.300   5.340 -13.941  0.00  0.00    +0.200 C 
BRANCH  21  22
ATOM     22  C   UNL     1       6.522   6.611 -14.707  0.00  0.00    +0.416 C 
ATOM     23  F   UNL     1       7.799   6.711 -15.230  0.00  0.00    -0.168 F 
ATOM     24  F   UNL     1       6.201   7.723 -13.963  0.00  0.00    -0.168 F 
ATOM     25  F   UNL     1       5.664   6.583 -15.802  0.00  0.00    -0.168 F 
ENDBRANCH  21  22
ENDBRANCH   8  21
TORSDOF 3
ENDMDL
MODEL 9
REMARK VINA RESULT:      -7.3      4.806      5.951
REMARK  Name = 
REMARK  3 active torsions:
REMARK  status: ('A' for Active; 'I' for Inactive)
REMARK    1  A    between atoms: C_7  and  C_8
REMARK    2  A    between atoms: N_13  and  C_14
REMARK    3  A    between atoms: C_14  and  C_15
REMARK                            x       y       z     vdW  Elec       q    Type
REMARK                         _______ _______ _______ _____ _____    ______ ____
ROOT
ATOM      1  C   UNL     1       2.221   5.806  -4.487  0.00  0.00    +0.080 C 
ATOM      2  C   UNL     1       1.441   5.818  -5.722  0.00  0.00    +0.032 A 
ATOM      3  C   UNL     1       0.060   5.943  -5.774  0.00  0.00    +0.053 A 
ATOM      4  C   UNL     1      -0.508   5.893  -7.034  0.00  0.00    +0.016 A 
ATOM      5  C   UNL     1       0.206   5.359  -8.100  0.00  0.00    +0.013 A 
ATOM      6  C   UNL     1       1.547   5.015  -7.983  0.00  0.00    +0.058 A 
ATOM      7 CL   UNL     1       2.110   3.647  -8.936  0.00  0.00    -0.082 Cl
ATOM      8  N   UNL     1      -0.888   5.951  -4.709  0.00  0.00    -0.276 N 
ATOM      9  C   UNL     1      -0.598   5.544  -3.365  0.00  0.00    +0.090 C 
ATOM     10  S   UNL     1      -1.905   5.448  -2.379  0.00  0.00    -0.037 S 
ATOM     11  C   UNL     1       0.620   4.932  -2.797  0.00  0.00    +0.174 C 
ATOM     12  C   UNL     1       2.191   5.418  -6.819  0.00  0.00    +0.014 A 
ATOM     13  N   UNL     1       1.843   5.549  -3.289  0.00  0.00    -0.264 NA
ENDROOT
BRANCH   1  16
ATOM     14  F   UNL     1       4.346   4.061  -3.901  0.00  0.00    -0.204 F 
ATOM     15  C   UNL     1       4.608   5.359  -4.229  0.00  0.00    +0.142 A 
ATOM     16  C   UNL     1       3.618   6.202  -4.716  0.00  0.00    +0.045 A 
ATOM     17  C   UNL     1       3.987   7.538  -4.818  0.00  0.00    +0.004 A 
ATOM     18  C   UNL     1       5.061   8.051  -4.103  0.00  0.00    +0.000 A 
ATOM     19  C   UNL     1       5.942   7.202  -3.467  0.00  0.00    +0.002 A 
ATOM     20  C   UNL     1       5.831   5.857  -3.795  0.00  0.00    +0.030 A 
ENDBRANCH   1  16
BRANCH   8  21
ATOM     21  C   UNL     1      -2.263   6.105  -5.104  0.00  0.00    +0.200 C 
BRANCH  21  22
ATOM     22  C   UNL     1      -2.771   7.512  -4.982  0.00  0.00    +0.416 C 
ATOM     23  F   UNL     1      -3.579   7.889  -6.039  0.00  0.00    -0.168 F 
ATOM     24  F   UNL     1      -1.750   8.413  -4.790  0.00  0.00    -0.168 F 
ATOM     25  F   UNL     1      -3.580   7.556  -3.850  0.00  0.00    -0.168 F 
ENDBRANCH  21  22
ENDBRANCH   8  21
TORSDOF 3
ENDMDL
