MODEL 1
REMARK VINA RESULT:      -7.8      0.000      0.000
REMARK  Name = 
REMARK  2 active torsions:
REMARK  status: ('A' for Active; 'I' for Inactive)
REMARK    1  A    between atoms: S_2  and  C_5
REMARK    2  A    between atoms: C_10  and  C_11
REMARK                            x       y       z     vdW  Elec       q    Type
REMARK                         _______ _______ _______ _____ _____    ______ ____
ROOT
ATOM      1  C   UNL     1       4.940   5.177  -9.484  0.00  0.00    +0.138 A 
ATOM      2  C   UNL     1       3.630   4.717  -9.473  0.00  0.00    +0.042 A 
ATOM      3  C   UNL     1       2.861   4.740  -8.316  0.00  0.00    +0.102 A 
ATOM      4  C   UNL     1       3.408   5.225  -7.138  0.00  0.00    +0.101 A 
ATOM      5  N   UNL     1       2.415   5.825  -6.446  0.00  0.00    -0.225 NA
ATOM      6  C   UNL     1       1.250   5.397  -6.945  0.00  0.00    +0.162 A 
ATOM      7  C   UNL     1       4.761   5.439  -7.096  0.00  0.00    +0.022 A 
ATOM      8  N   UNL     1       1.524   4.801  -8.107  0.00  0.00    -0.225 NA
ATOM      9  C   UNL     1       5.542   5.320  -8.240  0.00  0.00    +0.023 A 
ENDROOT
BRANCH   6  10
ATOM     10  C   UNL     1      -0.059   5.940  -6.569  0.00  0.00    +0.036 A 
ATOM     11  C   UNL     1      -0.182   6.914  -5.583  0.00  0.00    +0.003 A 
ATOM     12  C   UNL     1      -1.323   6.971  -4.794  0.00  0.00    +0.000 A 
ATOM     13  C   UNL     1      -2.337   6.046  -5.006  0.00  0.00    +0.000 A 
ATOM     14  C   UNL     1      -2.391   5.480  -6.259  0.00  0.00    +0.000 A 
ATOM     15  C   UNL     1      -1.247   5.423  -7.044  0.00  0.00    +0.003 A 
ENDBRANCH   6  10
BRANCH   1  17
ATOM     16  O   UNL     1       7.088   5.707 -11.022  0.00  0.00    -0.140 OA
ATOM     17  S   UNL     1       5.599   5.944 -10.924  0.00  0.00    +0.141 S 
ATOM     18  O   UNL     1       5.280   7.600 -10.921  0.00  0.00    -0.043 OA
ATOM     19  O   UNL     1       4.970   5.339 -12.146  0.00  0.00    -0.140 OA
ENDBRANCH   1  17
TORSDOF 2
ENDMDL
MODEL 2
REMARK VINA RESULT:      -7.8      4.331      7.520
REMARK  Name = 
REMARK  2 active torsions:
REMARK  status: ('A' for Active; 'I' for Inactive)
REMARK    1  A    between atoms: S_2  and  C_5
REMARK    2  A    between atoms: C_10  and  C_11
REMARK                            x       y       z     vdW  Elec       q    Type
REMARK                         _______ _______ _______ _____ _____    ______ ____
ROOT
ATOM      1  C   UNL     1       3.453   6.301  -6.057  0.00  0.00    +0.138 A 
ATOM      2  C   UNL     1       4.375   5.545  -6.767  0.00  0.00    +0.042 A 
ATOM      3  C   UNL     1       4.479   5.637  -8.151  0.00  0.00    +0.102 A 
ATOM      4  C   UNL     1       3.642   6.496  -8.845  0.00  0.00    +0.101 A 
ATOM      5  N   UNL     1       4.335   6.971  -9.903  0.00  0.00    -0.225 NA
ATOM      6  C   UNL     1       5.385   6.166 -10.102  0.00  0.00    +0.162 A 
ATOM      7  C   UNL     1       2.579   7.042  -8.175  0.00  0.00    +0.022 A 
ATOM      8  N   UNL     1       5.503   5.410  -9.008  0.00  0.00    -0.225 NA
ATOM      9  C   UNL     1       2.427   6.866  -6.805  0.00  0.00    +0.023 A 
ENDROOT
BRANCH   6  10
ATOM     10  C   UNL     1       6.466   6.438 -11.054  0.00  0.00    +0.036 A 
ATOM     11  C   UNL     1       6.198   6.873 -12.348  0.00  0.00    +0.003 A 
ATOM     12  C   UNL     1       7.049   6.534 -13.390  0.00  0.00    +0.000 A 
ATOM     13  C   UNL     1       8.170   5.758 -13.121  0.00  0.00    +0.000 A 
ATOM     14  C   UNL     1       8.642   5.800 -11.830  0.00  0.00    +0.000 A 
ATOM     15  C   UNL     1       7.787   6.138 -10.790  0.00  0.00    +0.003 A 
ENDBRANCH   6  10
BRANCH   1  17
ATOM     16  O   UNL     1       4.718   8.081  -4.480  0.00  0.00    -0.140 OA
ATOM     17  S   UNL     1       3.829   6.862  -4.432  0.00  0.00    +0.141 S 
ATOM     18  O   UNL     1       4.572   5.643  -3.533  0.00  0.00    -0.043 OA
ATOM     19  O   UNL     1       2.560   7.263  -3.735  0.00  0.00    -0.140 OA
ENDBRANCH   1  17
TORSDOF 2
ENDMDL
MODEL 3
REMARK VINA RESULT:      -7.7      4.316      7.184
REMARK  Name = 
REMARK  2 active torsions:
REMARK  status: ('A' for Active; 'I' for Inactive)
REMARK    1  A    between atoms: S_2  and  C_5
REMARK    2  A    between atoms: C_10  and  C_11
REMARK                            x       y       z     vdW  Elec       q    Type
REMARK                         _______ _______ _______ _____ _____    ______ ____
ROOT
ATOM      1  C   UNL     1       0.449   5.203  -6.975  0.00  0.00    +0.138 A 
ATOM      2  C   UNL     1       1.761   4.764  -7.086  0.00  0.00    +0.042 A 
ATOM      3  C   UNL     1       2.485   4.926  -8.262  0.00  0.00    +0.102 A 
ATOM      4  C   UNL     1       1.888   5.533  -9.357  0.00  0.00    +0.101 A 
ATOM      5  N   UNL     1       2.848   6.219 -10.014  0.00  0.00    -0.225 NA
ATOM      6  C   UNL     1       4.036   5.754  -9.611  0.00  0.00    +0.162 A 
ATOM      7  C   UNL     1       0.533   5.731  -9.324  0.00  0.00    +0.022 A 
ATOM      8  N   UNL     1       3.813   5.028  -8.512  0.00  0.00    -0.225 NA
ATOM      9  C   UNL     1      -0.202   5.475  -8.172  0.00  0.00    +0.023 A 
ENDROOT
BRANCH   6  10
ATOM     10  C   UNL     1       5.324   6.354  -9.973  0.00  0.00    +0.036 A 
ATOM     11  C   UNL     1       5.398   7.436 -10.844  0.00  0.00    +0.003 A 
ATOM     12  C   UNL     1       6.506   7.598 -11.664  0.00  0.00    +0.000 A 
ATOM     13  C   UNL     1       7.536   6.667 -11.601  0.00  0.00    +0.000 A 
ATOM     14  C   UNL     1       7.645   5.962 -10.425  0.00  0.00    +0.000 A 
ATOM     15  C   UNL     1       6.534   5.801  -9.607  0.00  0.00    +0.003 A 
ENDBRANCH   6  10
BRANCH   1  17
ATOM     16  O   UNL     1      -0.016   7.296  -5.344  0.00  0.00    -0.140 OA
ATOM     17  S   UNL     1      -0.161   5.796  -5.435  0.00  0.00    +0.141 S 
ATOM     18  O   UNL     1       0.644   5.061  -4.148  0.00  0.00    -0.043 OA
ATOM     19  O   UNL     1      -1.626   5.483  -5.324  0.00  0.00    -0.140 OA
ENDBRANCH   1  17
TORSDOF 2
ENDMDL
MODEL 4
REMARK VINA RESULT:      -7.5      0.880      1.762
REMARK  Name = 
REMARK  2 active torsions:
REMARK  status: ('A' for Active; 'I' for Inactive)
REMARK    1  A    between atoms: S_2  and  C_5
REMARK    2  A    between atoms: C_10  and  C_11
REMARK                            x       y       z     vdW  Elec       q    Type
REMARK                         _______ _______ _______ _____ _____    ______ ____
ROOT
ATOM      1  C   UNL     1       4.305   5.179  -9.267  0.00  0.00    +0.138 A 
ATOM      2  C   UNL     1       3.069   4.600  -9.015  0.00  0.00    +0.042 A 
ATOM      3  C   UNL     1       2.502   4.620  -7.746  0.00  0.00    +0.102 A 
ATOM      4  C   UNL     1       3.184   5.223  -6.700  0.00  0.00    +0.101 A 
ATOM      5  N   UNL     1       2.262   5.767  -5.876  0.00  0.00    -0.225 NA
ATOM      6  C   UNL     1       1.080   5.204  -6.151  0.00  0.00    +0.162 A 
ATOM      7  C   UNL     1       4.496   5.564  -6.897  0.00  0.00    +0.022 A 
ATOM      8  N   UNL     1       1.219   4.568  -7.317  0.00  0.00    -0.225 NA
ATOM      9  C   UNL     1       5.086   5.451  -8.151  0.00  0.00    +0.023 A 
ENDROOT
BRANCH   6  10
ATOM     10  C   UNL     1      -0.197   5.644  -5.582  0.00  0.00    +0.036 A 
ATOM     11  C   UNL     1      -1.408   5.309  -6.178  0.00  0.00    +0.003 A 
ATOM     12  C   UNL     1      -2.496   6.167  -6.083  0.00  0.00    +0.000 A 
ATOM     13  C   UNL     1      -2.355   7.360  -5.384  0.00  0.00    +0.000 A 
ATOM     14  C   UNL     1      -1.365   7.392  -4.430  0.00  0.00    +0.000 A 
ATOM     15  C   UNL     1      -0.279   6.533  -4.529  0.00  0.00    +0.003 A 
ENDBRANCH   6  10
BRANCH   1  17
ATOM     16  O   UNL     1       3.465   5.742 -11.764  0.00  0.00    -0.140 OA
ATOM     17  S   UNL     1       4.637   5.918 -10.829  0.00  0.00    +0.141 S 
ATOM     18  O   UNL     1       6.027   5.259 -11.521  0.00  0.00    -0.043 OA
ATOM     19  O   UNL     1       4.846   7.395 -10.650  0.00  0.00    -0.140 OA
ENDBRANCH   1  17
TORSDOF 2
ENDMDL
MODEL 5
REMARK VINA RESULT:      -7.5      4.494      7.066
REMARK  Name = 
REMARK  2 active torsions:
REMARK  status: ('A' for Active; 'I' for Inactive)
REMARK    1  A    between atoms: S_2  and  C_5
REMARK    2  A    between atoms: C_10  and  C_11
REMARK                            x       y       z     vdW  Elec       q    Type
REMARK                         _______ _______ _______ _____ _____    ______ ____
ROOT
ATOM      1  C   UNL     1       2.172   5.834  -4.826  0.00  0.00    +0.138 A 
ATOM      2  C   UNL     1       2.945   5.056  -5.677  0.00  0.00    +0.042 A 
ATOM      3  C   UNL     1       3.054   5.349  -7.032  0.00  0.00    +0.102 A 
ATOM      4  C   UNL     1       2.374   6.438  -7.554  0.00  0.00    +0.101 A 
ATOM      5  N   UNL     1       3.132   6.951  -8.548  0.00  0.00    -0.225 NA
ATOM      6  C   UNL     1       4.025   6.022  -8.906  0.00  0.00    +0.162 A 
ATOM      7  C   UNL     1       1.426   7.042  -6.771  0.00  0.00    +0.022 A 
ATOM      8  N   UNL     1       4.017   5.091  -7.948  0.00  0.00    -0.225 NA
ATOM      9  C   UNL     1       1.255   6.678  -5.441  0.00  0.00    +0.023 A 
ENDROOT
BRANCH   6  10
ATOM     10  C   UNL     1       5.130   6.255  -9.840  0.00  0.00    +0.036 A 
ATOM     11  C   UNL     1       6.382   5.683  -9.637  0.00  0.00    +0.003 A 
ATOM     12  C   UNL     1       7.528   6.338 -10.066  0.00  0.00    +0.000 A 
ATOM     13  C   UNL     1       7.406   7.568 -10.700  0.00  0.00    +0.000 A 
ATOM     14  C   UNL     1       6.198   7.820 -11.309  0.00  0.00    +0.000 A 
ATOM     15  C   UNL     1       5.054   7.164 -10.876  0.00  0.00    +0.003 A 
ENDBRANCH   6  10
BRANCH   1  17
ATOM     16  O   UNL     1       1.477   5.834  -2.223  0.00  0.00    -0.140 OA
ATOM     17  S   UNL     1       2.651   6.056  -3.147  0.00  0.00    +0.141 S 
ATOM     18  O   UNL     1       3.290   7.598  -2.904  0.00  0.00    -0.043 OA
ATOM     19  O   UNL     1       3.699   5.042  -2.787  0.00  0.00    -0.140 OA
ENDBRANCH   1  17
TORSDOF 2
ENDMDL
MODEL 6
REMARK VINA RESULT:      -7.4      4.681      7.052
REMARK  Name = 
REMARK  2 active torsions:
REMARK  status: ('A' for Active; 'I' for Inactive)
REMARK    1  A    between atoms: S_2  and  C_5
REMARK    2  A    between atoms: C_10  and  C_11
REMARK                            x       y       z     vdW  Elec       q    Type
REMARK                         _______ _______ _______ _____ _____    ______ ____
ROOT
ATOM      1  C   UNL     1      -0.196   6.265  -5.025  0.00  0.00    +0.138 A 
ATOM      2  C   UNL     1       0.565   7.096  -5.834  0.00  0.00    +0.042 A 
ATOM      3  C   UNL     1       1.881   6.790  -6.158  0.00  0.00    +0.102 A 
ATOM      4  C   UNL     1       2.458   5.632  -5.659  0.00  0.00    +0.101 A 
ATOM      5  N   UNL     1       3.322   5.174  -6.593  0.00  0.00    -0.225 NA
ATOM      6  C   UNL     1       3.582   6.177  -7.439  0.00  0.00    +0.162 A 
ATOM      7  C   UNL     1       1.794   4.956  -4.670  0.00  0.00    +0.022 A 
ATOM      8  N   UNL     1       2.664   7.120  -7.213  0.00  0.00    -0.225 NA
ATOM      9  C   UNL     1       0.512   5.327  -4.282  0.00  0.00    +0.023 A 
ENDROOT
BRANCH   6  10
ATOM     10  C   UNL     1       4.348   6.031  -8.680  0.00  0.00    +0.036 A 
ATOM     11  C   UNL     1       5.560   5.350  -8.707  0.00  0.00    +0.003 A 
ATOM     12  C   UNL     1       6.551   5.720  -9.606  0.00  0.00    +0.000 A 
ATOM     13  C   UNL     1       6.313   6.777 -10.476  0.00  0.00    +0.000 A 
ATOM     14  C   UNL     1       4.993   7.051 -10.752  0.00  0.00    +0.000 A 
ATOM     15  C   UNL     1       4.005   6.680  -9.850  0.00  0.00    +0.003 A 
ENDBRANCH   6  10
BRANCH   1  17
ATOM     16  O   UNL     1      -2.222   5.379  -6.565  0.00  0.00    -0.140 OA
ATOM     17  S   UNL     1      -1.931   6.120  -5.282  0.00  0.00    +0.141 S 
ATOM     18  O   UNL     1      -2.661   7.640  -5.317  0.00  0.00    -0.043 OA
ATOM     19  O   UNL     1      -2.538   5.324  -4.161  0.00  0.00    -0.140 OA
ENDBRANCH   1  17
TORSDOF 2
ENDMDL
MODEL 7
REMARK VINA RESULT:      -7.2      2.094      3.203
REMARK  Name = 
REMARK  2 active torsions:
REMARK  status: ('A' for Active; 'I' for Inactive)
REMARK    1  A    between atoms: S_2  and  C_5
REMARK    2  A    between atoms: C_10  and  C_11
REMARK                            x       y       z     vdW  Elec       q    Type
REMARK                         _______ _______ _______ _____ _____    ______ ____
ROOT
ATOM      1  C   UNL     1       5.670   6.286 -11.547  0.00  0.00    +0.138 A 
ATOM      2  C   UNL     1       5.074   6.769 -10.390  0.00  0.00    +0.042 A 
ATOM      3  C   UNL     1       3.715   6.606 -10.150  0.00  0.00    +0.102 A 
ATOM      4  C   UNL     1       2.927   5.953 -11.085  0.00  0.00    +0.101 A 
ATOM      5  N   UNL     1       1.964   5.286 -10.411  0.00  0.00    -0.225 NA
ATOM      6  C   UNL     1       1.892   5.803  -9.179  0.00  0.00    +0.162 A 
ATOM      7  C   UNL     1       3.464   5.706 -12.321  0.00  0.00    +0.022 A 
ATOM      8  N   UNL     1       2.988   6.546  -9.008  0.00  0.00    -0.225 NA
ATOM      9  C   UNL     1       4.805   5.962 -12.585  0.00  0.00    +0.023 A 
ENDROOT
BRANCH   6  10
ATOM     10  C   UNL     1       1.081   5.242  -8.095  0.00  0.00    +0.036 A 
ATOM     11  C   UNL     1      -0.302   5.388  -8.076  0.00  0.00    +0.003 A 
ATOM     12  C   UNL     1      -0.982   5.461  -6.868  0.00  0.00    +0.000 A 
ATOM     13  C   UNL     1      -0.261   5.385  -5.682  0.00  0.00    +0.000 A 
ATOM     14  C   UNL     1       0.957   4.750  -5.752  0.00  0.00    +0.000 A 
ATOM     15  C   UNL     1       1.634   4.680  -6.962  0.00  0.00    +0.003 A 
ENDBRANCH   6  10
BRANCH   1  17
ATOM     16  O   UNL     1       8.298   6.842 -11.762  0.00  0.00    -0.140 OA
ATOM     17  S   UNL     1       7.332   5.708 -11.514  0.00  0.00    +0.141 S 
ATOM     18  O   UNL     1       7.566   4.492 -12.660  0.00  0.00    -0.043 OA
ATOM     19  O   UNL     1       7.640   5.149 -10.154  0.00  0.00    -0.140 OA
ENDBRANCH   1  17
TORSDOF 2
ENDMDL
MODEL 8
REMARK VINA RESULT:      -7.1      1.793      2.611
REMARK  Name = 
REMARK  2 active torsions:
REMARK  status: ('A' for Active; 'I' for Inactive)
REMARK    1  A    between atoms: S_2  and  C_5
REMARK    2  A    between atoms: C_10  and  C_11
REMARK                            x       y       z     vdW  Elec       q    Type
REMARK                         _______ _______ _______ _____ _____    ______ ____
ROOT
ATOM      1  C   UNL     1       4.166   6.561 -10.566  0.00  0.00    +0.138 A 
ATOM      2  C   UNL     1       3.547   7.118  -9.456  0.00  0.00    +0.042 A 
ATOM      3  C   UNL     1       2.214   6.859  -9.160  0.00  0.00    +0.102 A 
ATOM      4  C   UNL     1       1.475   6.032  -9.992  0.00  0.00    +0.101 A 
ATOM      5  N   UNL     1       0.592   5.362  -9.219  0.00  0.00    -0.225 NA
ATOM      6  C   UNL     1       0.493   6.010  -8.053  0.00  0.00    +0.162 A 
ATOM      7  C   UNL     1       2.012   5.694 -11.207  0.00  0.00    +0.022 A 
ATOM      8  N   UNL     1       1.517   6.865  -7.999  0.00  0.00    -0.225 NA
ATOM      9  C   UNL     1       3.317   6.040 -11.536  0.00  0.00    +0.023 A 
ENDROOT
BRANCH   6  10
ATOM     10  C   UNL     1      -0.242   5.506  -6.889  0.00  0.00    +0.036 A 
ATOM     11  C   UNL     1      -1.620   5.324  -6.927  0.00  0.00    +0.003 A 
ATOM     12  C   UNL     1      -2.379   5.479  -5.774  0.00  0.00    +0.000 A 
ATOM     13  C   UNL     1      -1.741   5.816  -4.587  0.00  0.00    +0.000 A 
ATOM     14  C   UNL     1      -0.409   5.485  -4.497  0.00  0.00    +0.000 A 
ATOM     15  C   UNL     1       0.346   5.332  -5.652  0.00  0.00    +0.003 A 
ENDBRANCH   6  10
BRANCH   1  17
ATOM     16  O   UNL     1       6.235   5.218 -11.652  0.00  0.00    -0.140 OA
ATOM     17  S   UNL     1       5.875   6.146 -10.515  0.00  0.00    +0.141 S 
ATOM     18  O   UNL     1       6.275   5.431  -9.041  0.00  0.00    -0.043 OA
ATOM     19  O   UNL     1       6.698   7.392 -10.681  0.00  0.00    -0.140 OA
ENDBRANCH   1  17
TORSDOF 2
ENDMDL
MODEL 9
REMARK VINA RESULT:      -7.0      5.346      7.357
REMARK  Name = 
REMARK  2 active torsions:
REMARK  status: ('A' for Active; 'I' for Inactive)
REMARK    1  A    between atoms: S_2  and  C_5
REMARK    2  A    between atoms: C_10  and  C_11
REMARK                            x       y       z     vdW  Elec       q    Type
REMARK                         _______ _______ _______ _____ _____    ______ ____
ROOT
ATOM      1  C   UNL     1      -0.808   6.155  -3.586  0.00  0.00    +0.138 A 
ATOM      2  C   UNL     1      -0.243   7.001  -4.530  0.00  0.00    +0.042 A 
ATOM      3  C   UNL     1       1.097   6.899  -4.888  0.00  0.00    +0.102 A 
ATOM      4  C   UNL     1       1.896   5.938  -4.288  0.00  0.00    +0.101 A 
ATOM      5  N   UNL     1       2.798   5.530  -5.207  0.00  0.00    -0.225 NA
ATOM      6  C   UNL     1       2.839   6.447  -6.180  0.00  0.00    +0.162 A 
ATOM      7  C   UNL     1       1.403   5.284  -3.190  0.00  0.00    +0.022 A 
ATOM      8  N   UNL     1       1.769   7.229  -6.017  0.00  0.00    -0.225 NA
ATOM      9  C   UNL     1       0.087   5.464  -2.778  0.00  0.00    +0.023 A 
ENDROOT
BRANCH   6  10
ATOM     10  C   UNL     1       3.577   6.286  -7.436  0.00  0.00    +0.036 A 
ATOM     11  C   UNL     1       3.098   6.816  -8.629  0.00  0.00    +0.003 A 
ATOM     12  C   UNL     1       3.375   6.187  -9.835  0.00  0.00    +0.000 A 
ATOM     13  C   UNL     1       4.136   5.024  -9.831  0.00  0.00    +0.000 A 
ATOM     14  C   UNL     1       4.973   4.850  -8.754  0.00  0.00    +0.000 A 
ATOM     15  C   UNL     1       4.692   5.480  -7.549  0.00  0.00    +0.003 A 
ENDBRANCH   6  10
BRANCH   1  17
ATOM     16  O   UNL     1      -2.809   4.553  -2.758  0.00  0.00    -0.140 OA
ATOM     17  S   UNL     1      -2.493   5.667  -3.727  0.00  0.00    +0.141 S 
ATOM     18  O   UNL     1      -2.846   5.177  -5.301  0.00  0.00    -0.043 OA
ATOM     19  O   UNL     1      -3.380   6.828  -3.377  0.00  0.00    -0.140 OA
ENDBRANCH   1  17
TORSDOF 2
ENDMDL
