MODEL 1
REMARK VINA RESULT:      -5.8      0.000      0.000
REMARK  Name = 
REMARK  1 active torsions:
REMARK  status: ('A' for Active; 'I' for Inactive)
REMARK    1  A    between atoms: C_4  and  C_5
REMARK                            x       y       z     vdW  Elec       q    Type
REMARK                         _______ _______ _______ _____ _____    ______ ____
ROOT
ATOM      1  C   UNL     1       0.208   6.802  -5.619  0.00  0.00    +0.026 C 
ATOM      2  C   UNL     1       0.587   6.339  -6.108  0.00  0.00    +0.140 C 
ATOM      3  S   UNL     1       2.036   6.718  -6.982  0.00  0.00    +0.005 S 
ATOM      4  O   UNL     1       2.088   8.033  -7.567  0.00  0.00    -0.171 OA
ATOM      5  O   UNL     1       2.786   5.618  -7.548  0.00  0.00    -0.171 OA
ATOM      6  C   UNL     1       2.597   7.012  -5.185  0.00  0.00    +0.215 C 
ATOM      7  N   UNL     1       2.541   5.525  -4.885  0.00  0.00    -0.252 N 
ATOM      8  C   UNL     1       3.946   5.365  -5.049  0.00  0.00    +0.231 C 
ATOM      9  O   UNL     1       4.764   4.624  -4.421  0.00  0.00    -0.275 OA
ATOM     10  C   UNL     1       4.158   6.777  -5.497  0.00  0.00    +0.130 C 
ATOM     11  C   UNL     1       1.098   4.998  -5.256  0.00  0.00    +0.201 C 
ATOM     12  C   UNL     1      -0.362   5.636  -7.071  0.00  0.00    +0.026 C 
ENDROOT
BRANCH  11  13
ATOM     13  C   UNL     1       0.437   5.545  -3.851  0.00  0.00    +0.384 C 
ATOM     14  O   UNL     1       1.370   5.356  -2.835  0.00  0.00    -0.244 OA
ATOM     15  O   UNL     1      -0.745   5.267  -3.671  0.00  0.00    -0.244 OA
ENDBRANCH  11  13
TORSDOF 1
ENDMDL
MODEL 2
REMARK VINA RESULT:      -5.7      2.904      3.964
REMARK  Name = 
REMARK  1 active torsions:
REMARK  status: ('A' for Active; 'I' for Inactive)
REMARK    1  A    between atoms: C_4  and  C_5
REMARK                            x       y       z     vdW  Elec       q    Type
REMARK                         _______ _______ _______ _____ _____    ______ ____
ROOT
ATOM      1  C   UNL     1      -1.933   7.297  -2.737  0.00  0.00    +0.026 C 
ATOM      2  C   UNL     1      -2.208   6.716  -3.166  0.00  0.00    +0.140 C 
ATOM      3  S   UNL     1      -2.335   6.672  -4.894  0.00  0.00    +0.005 S 
ATOM      4  O   UNL     1      -2.815   7.880  -5.517  0.00  0.00    -0.171 OA
ATOM      5  O   UNL     1      -2.523   5.383  -5.523  0.00  0.00    -0.171 OA
ATOM      6  C   UNL     1      -0.473   7.004  -4.666  0.00  0.00    +0.215 C 
ATOM      7  N   UNL     1      -0.252   5.605  -4.124  0.00  0.00    -0.252 N 
ATOM      8  C   UNL     1       0.227   5.117  -5.373  0.00  0.00    +0.231 C 
ATOM      9  O   UNL     1       1.144   4.275  -5.624  0.00  0.00    -0.275 OA
ATOM     10  C   UNL     1      -0.057   6.395  -6.097  0.00  0.00    +0.130 C 
ATOM     11  C   UNL     1      -1.238   5.383  -2.908  0.00  0.00    +0.201 C 
ATOM     12  C   UNL     1      -3.504   6.155  -2.594  0.00  0.00    +0.026 C 
ENDROOT
BRANCH  11  13
ATOM     13  C   UNL     1      -0.269   6.197  -1.855  0.00  0.00    +0.384 C 
ATOM     14  O   UNL     1       1.055   5.963  -2.220  0.00  0.00    -0.244 OA
ATOM     15  O   UNL     1      -0.606   6.157  -0.676  0.00  0.00    -0.244 OA
ENDBRANCH  11  13
TORSDOF 1
ENDMDL
MODEL 3
REMARK VINA RESULT:      -5.7      1.848      3.915
REMARK  Name = 
REMARK  1 active torsions:
REMARK  status: ('A' for Active; 'I' for Inactive)
REMARK    1  A    between atoms: C_4  and  C_5
REMARK                            x       y       z     vdW  Elec       q    Type
REMARK                         _______ _______ _______ _____ _____    ______ ____
ROOT
ATOM      1  C   UNL     1       4.103   5.286  -5.509  0.00  0.00    +0.026 C 
ATOM      2  C   UNL     1       3.660   5.474  -6.113  0.00  0.00    +0.140 C 
ATOM      3  S   UNL     1       2.179   4.710  -6.591  0.00  0.00    +0.005 S 
ATOM      4  O   UNL     1       2.170   3.270  -6.530  0.00  0.00    -0.171 OA
ATOM      5  O   UNL     1       1.320   5.423  -7.510  0.00  0.00    -0.171 OA
ATOM      6  C   UNL     1       1.771   5.229  -4.804  0.00  0.00    +0.215 C 
ATOM      7  N   UNL     1       1.751   6.695  -5.195  0.00  0.00    -0.252 N 
ATOM      8  C   UNL     1       0.330   6.729  -5.280  0.00  0.00    +0.231 C 
ATOM      9  O   UNL     1      -0.486   7.650  -4.967  0.00  0.00    -0.275 OA
ATOM     10  C   UNL     1       0.178   5.260  -5.039  0.00  0.00    +0.130 C 
ATOM     11  C   UNL     1       3.126   7.040  -5.894  0.00  0.00    +0.201 C 
ATOM     12  C   UNL     1       4.488   5.701  -7.372  0.00  0.00    +0.026 C 
ENDROOT
BRANCH  11  13
ATOM     13  C   UNL     1       3.922   7.191  -4.461  0.00  0.00    +0.384 C 
ATOM     14  O   UNL     1       2.999   7.585  -3.496  0.00  0.00    -0.244 OA
ATOM     15  O   UNL     1       5.029   7.718  -4.516  0.00  0.00    -0.244 OA
ENDBRANCH  11  13
TORSDOF 1
ENDMDL
MODEL 4
REMARK VINA RESULT:      -5.6      1.946      3.433
REMARK  Name = 
REMARK  1 active torsions:
REMARK  status: ('A' for Active; 'I' for Inactive)
REMARK    1  A    between atoms: C_4  and  C_5
REMARK                            x       y       z     vdW  Elec       q    Type
REMARK                         _______ _______ _______ _____ _____    ______ ____
ROOT
ATOM      1  C   UNL     1       0.705   4.431  -5.444  0.00  0.00    +0.026 C 
ATOM      2  C   UNL     1       0.946   5.091  -5.121  0.00  0.00    +0.140 C 
ATOM      3  S   UNL     1       2.582   5.654  -5.013  0.00  0.00    +0.005 S 
ATOM      4  O   UNL     1       3.563   4.660  -4.656  0.00  0.00    -0.171 OA
ATOM      5  O   UNL     1       2.794   7.053  -4.713  0.00  0.00    -0.171 OA
ATOM      6  C   UNL     1       2.390   5.428  -6.894  0.00  0.00    +0.215 C 
ATOM      7  N   UNL     1       1.437   6.606  -6.976  0.00  0.00    -0.252 N 
ATOM      8  C   UNL     1       2.457   7.494  -7.423  0.00  0.00    +0.231 C 
ATOM      9  O   UNL     1       2.401   8.447  -8.259  0.00  0.00    -0.275 OA
ATOM     10  C   UNL     1       3.548   6.482  -7.270  0.00  0.00    +0.130 C 
ATOM     11  C   UNL     1       0.253   6.357  -5.958  0.00  0.00    +0.201 C 
ATOM     12  C   UNL     1       0.284   5.336  -3.771  0.00  0.00    +0.026 C 
ENDROOT
BRANCH  11  13
ATOM     13  C   UNL     1      -0.539   5.344  -6.985  0.00  0.00    +0.384 C 
ATOM     14  O   UNL     1      -0.226   5.723  -8.289  0.00  0.00    -0.244 OA
ATOM     15  O   UNL     1      -1.694   5.066  -6.678  0.00  0.00    -0.244 OA
ENDBRANCH  11  13
TORSDOF 1
ENDMDL
MODEL 5
REMARK VINA RESULT:      -5.5      1.831      3.829
REMARK  Name = 
REMARK  1 active torsions:
REMARK  status: ('A' for Active; 'I' for Inactive)
REMARK    1  A    between atoms: C_4  and  C_5
REMARK                            x       y       z     vdW  Elec       q    Type
REMARK                         _______ _______ _______ _____ _____    ______ ____
ROOT
ATOM      1  C   UNL     1       4.681   5.649  -3.911  0.00  0.00    +0.026 C 
ATOM      2  C   UNL     1       4.481   6.274  -4.318  0.00  0.00    +0.140 C 
ATOM      3  S   UNL     1       3.818   6.299  -5.920  0.00  0.00    +0.005 S 
ATOM      4  O   UNL     1       4.427   5.395  -6.863  0.00  0.00    -0.171 OA
ATOM      5  O   UNL     1       3.173   7.515  -6.362  0.00  0.00    -0.171 OA
ATOM      6  C   UNL     1       2.554   5.201  -5.012  0.00  0.00    +0.215 C 
ATOM      7  N   UNL     1       2.040   6.387  -4.216  0.00  0.00    -0.252 N 
ATOM      8  C   UNL     1       0.916   6.568  -5.071  0.00  0.00    +0.231 C 
ATOM      9  O   UNL     1      -0.273   6.917  -4.796  0.00  0.00    -0.275 OA
ATOM     10  C   UNL     1       1.353   5.511  -6.038  0.00  0.00    +0.130 C 
ATOM     11  C   UNL     1       3.268   7.063  -3.485  0.00  0.00    +0.201 C 
ATOM     12  C   UNL     1       5.542   7.364  -4.241  0.00  0.00    +0.026 C 
ENDROOT
BRANCH  11  13
ATOM     13  C   UNL     1       3.276   5.952  -2.271  0.00  0.00    +0.384 C 
ATOM     14  O   UNL     1       1.960   5.555  -2.044  0.00  0.00    -0.244 OA
ATOM     15  O   UNL     1       4.025   6.192  -1.329  0.00  0.00    -0.244 OA
ENDBRANCH  11  13
TORSDOF 1
ENDMDL
MODEL 6
REMARK VINA RESULT:      -5.5      2.907      3.554
REMARK  Name = 
REMARK  1 active torsions:
REMARK  status: ('A' for Active; 'I' for Inactive)
REMARK    1  A    between atoms: C_4  and  C_5
REMARK                            x       y       z     vdW  Elec       q    Type
REMARK                         _______ _______ _______ _____ _____    ______ ____
ROOT
ATOM      1  C   UNL     1      -2.155   7.103  -4.729  0.00  0.00    +0.026 C 
ATOM      2  C   UNL     1      -1.829   6.427  -4.913  0.00  0.00    +0.140 C 
ATOM      3  S   UNL     1      -0.143   6.129  -5.184  0.00  0.00    +0.005 S 
ATOM      4  O   UNL     1       0.550   7.124  -5.962  0.00  0.00    -0.171 OA
ATOM      5  O   UNL     1       0.311   4.756  -5.153  0.00  0.00    -0.171 OA
ATOM      6  C   UNL     1      -0.115   6.849  -3.421  0.00  0.00    +0.215 C 
ATOM      7  N   UNL     1      -0.781   5.605  -2.863  0.00  0.00    -0.252 N 
ATOM      8  C   UNL     1       0.453   5.060  -2.407  0.00  0.00    +0.231 C 
ATOM      9  O   UNL     1       0.714   4.390  -1.361  0.00  0.00    -0.275 OA
ATOM     10  C   UNL     1       1.278   6.149  -3.018  0.00  0.00    +0.130 C 
ATOM     11  C   UNL     1      -2.120   5.358  -3.665  0.00  0.00    +0.201 C 
ATOM     12  C   UNL     1      -2.607   5.702  -6.004  0.00  0.00    +0.026 C 
ENDROOT
BRANCH  11  13
ATOM     13  C   UNL     1      -2.955   6.480  -2.797  0.00  0.00    +0.384 C 
ATOM     14  O   UNL     1      -2.360   6.584  -1.543  0.00  0.00    -0.244 OA
ATOM     15  O   UNL     1      -4.177   6.440  -2.905  0.00  0.00    -0.244 OA
ENDBRANCH  11  13
TORSDOF 1
ENDMDL
MODEL 7
REMARK VINA RESULT:      -5.5      3.011      4.786
REMARK  Name = 
REMARK  1 active torsions:
REMARK  status: ('A' for Active; 'I' for Inactive)
REMARK    1  A    between atoms: C_4  and  C_5
REMARK                            x       y       z     vdW  Elec       q    Type
REMARK                         _______ _______ _______ _____ _____    ______ ____
ROOT
ATOM      1  C   UNL     1      -0.032   5.298  -5.091  0.00  0.00    +0.026 C 
ATOM      2  C   UNL     1      -0.269   6.033  -5.056  0.00  0.00    +0.140 C 
ATOM      3  S   UNL     1      -1.900   6.604  -5.192  0.00  0.00    +0.005 S 
ATOM      4  O   UNL     1      -2.695   5.985  -6.221  0.00  0.00    -0.171 OA
ATOM      5  O   UNL     1      -2.181   7.948  -4.738  0.00  0.00    -0.171 OA
ATOM      6  C   UNL     1      -2.051   5.393  -3.730  0.00  0.00    +0.215 C 
ATOM      7  N   UNL     1      -1.247   6.317  -2.833  0.00  0.00    -0.252 N 
ATOM      8  C   UNL     1      -2.413   6.847  -2.210  0.00  0.00    +0.231 C 
ATOM      9  O   UNL     1      -2.610   7.195  -1.006  0.00  0.00    -0.275 OA
ATOM     10  C   UNL     1      -3.354   6.104  -3.107  0.00  0.00    +0.130 C 
ATOM     11  C   UNL     1       0.128   6.629  -3.548  0.00  0.00    +0.201 C 
ATOM     12  C   UNL     1       0.613   6.952  -5.891  0.00  0.00    +0.026 C 
ENDROOT
BRANCH  11  13
ATOM     13  C   UNL     1       0.801   5.202  -3.078  0.00  0.00    +0.384 C 
ATOM     14  O   UNL     1       0.172   4.797  -1.903  0.00  0.00    -0.244 OA
ATOM     15  O   UNL     1       2.020   5.122  -3.191  0.00  0.00    -0.244 OA
ENDBRANCH  11  13
TORSDOF 1
ENDMDL
MODEL 8
REMARK VINA RESULT:      -5.4      1.946      2.942
REMARK  Name = 
REMARK  1 active torsions:
REMARK  status: ('A' for Active; 'I' for Inactive)
REMARK    1  A    between atoms: C_4  and  C_5
REMARK                            x       y       z     vdW  Elec       q    Type
REMARK                         _______ _______ _______ _____ _____    ______ ____
ROOT
ATOM      1  C   UNL     1       1.218   6.279  -6.824  0.00  0.00    +0.026 C 
ATOM      2  C   UNL     1       1.647   5.736  -6.480  0.00  0.00    +0.140 C 
ATOM      3  S   UNL     1       2.795   5.976  -5.203  0.00  0.00    +0.005 S 
ATOM      4  O   UNL     1       3.655   7.123  -5.343  0.00  0.00    -0.171 OA
ATOM      5  O   UNL     1       3.216   4.814  -4.451  0.00  0.00    -0.171 OA
ATOM      6  C   UNL     1       1.216   6.701  -4.424  0.00  0.00    +0.215 C 
ATOM      7  N   UNL     1       0.593   5.322  -4.313  0.00  0.00    -0.252 N 
ATOM      8  C   UNL     1       0.933   5.197  -2.936  0.00  0.00    +0.231 C 
ATOM      9  O   UNL     1       0.292   4.662  -1.980  0.00  0.00    -0.275 OA
ATOM     10  C   UNL     1       1.707   6.479  -2.907  0.00  0.00    +0.130 C 
ATOM     11  C   UNL     1       0.611   4.653  -5.746  0.00  0.00    +0.201 C 
ATOM     12  C   UNL     1       2.274   4.785  -7.491  0.00  0.00    +0.026 C 
ENDROOT
BRANCH  11  13
ATOM     13  C   UNL     1      -0.724   5.473  -6.247  0.00  0.00    +0.384 C 
ATOM     14  O   UNL     1      -1.583   5.604  -5.159  0.00  0.00    -0.244 OA
ATOM     15  O   UNL     1      -1.161   5.162  -7.351  0.00  0.00    -0.244 OA
ENDBRANCH  11  13
TORSDOF 1
ENDMDL
MODEL 9
REMARK VINA RESULT:      -5.3      2.834      4.393
REMARK  Name = 
REMARK  1 active torsions:
REMARK  status: ('A' for Active; 'I' for Inactive)
REMARK    1  A    between atoms: C_4  and  C_5
REMARK                            x       y       z     vdW  Elec       q    Type
REMARK                         _______ _______ _______ _____ _____    ______ ____
ROOT
ATOM      1  C   UNL     1       2.303   4.410  -6.923  0.00  0.00    +0.026 C 
ATOM      2  C   UNL     1       2.624   5.068  -7.170  0.00  0.00    +0.140 C 
ATOM      3  S   UNL     1       3.408   5.334  -8.693  0.00  0.00    +0.005 S 
ATOM      4  O   UNL     1       4.286   4.281  -9.136  0.00  0.00    -0.171 OA
ATOM      5  O   UNL     1       3.610   6.702  -9.116  0.00  0.00    -0.171 OA
ATOM      6  C   UNL     1       1.689   4.740  -9.258  0.00  0.00    +0.215 C 
ATOM      7  N   UNL     1       1.044   6.025  -8.772  0.00  0.00    -0.252 N 
ATOM      8  C   UNL     1       1.019   6.592 -10.078  0.00  0.00    +0.231 C 
ATOM      9  O   UNL     1       0.148   7.333 -10.631  0.00  0.00    -0.275 OA
ATOM     10  C   UNL     1       1.771   5.456 -10.698  0.00  0.00    +0.130 C 
ATOM     11  C   UNL     1       1.424   6.225  -7.251  0.00  0.00    +0.201 C 
ATOM     12  C   UNL     1       3.480   5.720  -6.091  0.00  0.00    +0.026 C 
ENDROOT
BRANCH  11  13
ATOM     13  C   UNL     1       0.270   5.173  -6.730  0.00  0.00    +0.384 C 
ATOM     14  O   UNL     1      -0.845   5.316  -7.552  0.00  0.00    -0.244 OA
ATOM     15  O   UNL     1       0.138   5.083  -5.513  0.00  0.00    -0.244 OA
ENDBRANCH  11  13
TORSDOF 1
ENDMDL
