MODEL 1
REMARK VINA RESULT:      -6.7      0.000      0.000
REMARK  Name = 
REMARK  3 active torsions:
REMARK  status: ('A' for Active; 'I' for Inactive)
REMARK    1  A    between atoms: C_2  and  C_4
REMARK    2  A    between atoms: N_6  and  C_7
REMARK    3  A    between atoms: C_7  and  C_8
REMARK                            x       y       z     vdW  Elec       q    Type
REMARK                         _______ _______ _______ _____ _____    ______ ____
ROOT
ATOM      1  C   UNL     1       3.570   5.785  -9.866  0.00  0.00    +0.160 C 
ENDROOT
BRANCH   1   2
ATOM      2  C   UNL     1       3.800   6.385  -8.513  0.00  0.00    +0.057 A 
ATOM      3  C   UNL     1       4.563   5.596  -7.658  0.00  0.00    +0.140 A 
ATOM      4  F   UNL     1       5.621   4.866  -8.118  0.00  0.00    -0.204 F 
ATOM      5  C   UNL     1       4.460   5.694  -6.278  0.00  0.00    +0.030 A 
ATOM      6  C   UNL     1       3.238   6.110  -5.763  0.00  0.00    +0.005 A 
ATOM      7  C   UNL     1       2.574   7.059  -6.527  0.00  0.00    +0.030 A 
ATOM      8  C   UNL     1       2.738   7.044  -7.907  0.00  0.00    +0.140 A 
ATOM      9  F   UNL     1       1.778   7.642  -8.636  0.00  0.00    -0.204 F 
ENDBRANCH   1   2
BRANCH   1  13
ATOM     10  C   UNL     1       6.589   5.876 -11.707  0.00  0.00    +0.180 A 
ATOM     11  N   UNL     1       6.605   7.013 -10.971  0.00  0.00    -0.124 NA
ATOM     12  N   UNL     1       5.329   7.333 -10.759  0.00  0.00    -0.063 NA
ATOM     13  N   UNL     1       4.570   6.239 -10.827  0.00  0.00    -0.225 N 
ATOM     14  C   UNL     1       5.329   5.350 -11.514  0.00  0.00    +0.123 A 
BRANCH  10  16
ATOM     15  N   UNL     1       9.007   5.871 -12.089  0.00  0.00    -0.082 NA
ATOM     16  C   UNL     1       7.749   5.229 -12.333  0.00  0.00    +0.305 C 
ATOM     17  O   UNL     1       7.587   4.798 -13.515  0.00  0.00    -0.265 OA
ENDBRANCH  10  16
ENDBRANCH   1  13
TORSDOF 3
ENDMDL
MODEL 2
REMARK VINA RESULT:      -6.6      8.316     10.366
REMARK  Name = 
REMARK  3 active torsions:
REMARK  status: ('A' for Active; 'I' for Inactive)
REMARK    1  A    between atoms: C_2  and  C_4
REMARK    2  A    between atoms: N_6  and  C_7
REMARK    3  A    between atoms: C_7  and  C_8
REMARK                            x       y       z     vdW  Elec       q    Type
REMARK                         _______ _______ _______ _____ _____    ______ ____
ROOT
ATOM      1  C   UNL     1      -2.400   7.098  -4.648  0.00  0.00    +0.160 C 
ENDROOT
BRANCH   1   2
ATOM      2  C   UNL     1      -1.438   6.151  -5.295  0.00  0.00    +0.057 A 
ATOM      3  C   UNL     1      -0.118   6.588  -5.301  0.00  0.00    +0.140 A 
ATOM      4  F   UNL     1       0.413   7.263  -4.239  0.00  0.00    -0.204 F 
ATOM      5  C   UNL     1       0.797   6.160  -6.253  0.00  0.00    +0.030 A 
ATOM      6  C   UNL     1       0.291   5.793  -7.495  0.00  0.00    +0.005 A 
ATOM      7  C   UNL     1      -0.946   5.166  -7.461  0.00  0.00    +0.030 A 
ATOM      8  C   UNL     1      -1.844   5.508  -6.458  0.00  0.00    +0.140 A 
ATOM      9  F   UNL     1      -3.143   5.246  -6.695  0.00  0.00    -0.204 F 
ENDBRANCH   1   2
BRANCH   1  13
ATOM     10  C   UNL     1      -2.155   6.271  -1.217  0.00  0.00    +0.180 A 
ATOM     11  N   UNL     1      -2.386   5.089  -1.836  0.00  0.00    -0.124 NA
ATOM     12  N   UNL     1      -3.063   5.380  -2.947  0.00  0.00    -0.063 NA
ATOM     13  N   UNL     1      -2.799   6.631  -3.324  0.00  0.00    -0.225 N 
ATOM     14  C   UNL     1      -2.318   7.222  -2.203  0.00  0.00    +0.123 A 
BRANCH  10  16
ATOM     15  N   UNL     1      -2.264   7.425   0.938  0.00  0.00    -0.082 NA
ATOM     16  C   UNL     1      -1.592   6.454   0.126  0.00  0.00    +0.305 C 
ATOM     17  O   UNL     1      -0.327   6.466   0.213  0.00  0.00    -0.265 OA
ENDBRANCH  10  16
ENDBRANCH   1  13
TORSDOF 3
ENDMDL
MODEL 3
REMARK VINA RESULT:      -6.5      1.680      2.430
REMARK  Name = 
REMARK  3 active torsions:
REMARK  status: ('A' for Active; 'I' for Inactive)
REMARK    1  A    between atoms: C_2  and  C_4
REMARK    2  A    between atoms: N_6  and  C_7
REMARK    3  A    between atoms: C_7  and  C_8
REMARK                            x       y       z     vdW  Elec       q    Type
REMARK                         _______ _______ _______ _____ _____    ______ ____
ROOT
ATOM      1  C   UNL     1       4.431   4.486  -9.087  0.00  0.00    +0.160 C 
ENDROOT
BRANCH   1   2
ATOM      2  C   UNL     1       3.313   5.219  -8.414  0.00  0.00    +0.057 A 
ATOM      3  C   UNL     1       2.445   5.868  -9.286  0.00  0.00    +0.140 A 
ATOM      4  F   UNL     1       2.092   5.314 -10.483  0.00  0.00    -0.204 F 
ATOM      5  C   UNL     1       1.704   6.976  -8.899  0.00  0.00    +0.030 A 
ATOM      6  C   UNL     1       2.237   7.774  -7.894  0.00  0.00    +0.005 A 
ATOM      7  C   UNL     1       2.932   7.088  -6.909  0.00  0.00    +0.030 A 
ATOM      8  C   UNL     1       3.604   5.921  -7.251  0.00  0.00    +0.140 A 
ATOM      9  F   UNL     1       4.602   5.536  -6.433  0.00  0.00    -0.204 F 
ENDBRANCH   1   2
BRANCH   1  13
ATOM     10  C   UNL     1       7.050   5.731 -11.112  0.00  0.00    +0.180 A 
ATOM     11  N   UNL     1       7.593   5.635  -9.875  0.00  0.00    -0.124 NA
ATOM     12  N   UNL     1       6.582   5.771  -9.016  0.00  0.00    -0.063 NA
ATOM     13  N   UNL     1       5.440   5.406  -9.600  0.00  0.00    -0.225 N 
ATOM     14  C   UNL     1       5.707   5.478 -10.927  0.00  0.00    +0.123 A 
BRANCH  10  16
ATOM     15  N   UNL     1       7.335   4.913 -13.400  0.00  0.00    -0.082 NA
ATOM     16  C   UNL     1       7.785   5.813 -12.380  0.00  0.00    +0.305 C 
ATOM     17  O   UNL     1       9.043   5.945 -12.298  0.00  0.00    -0.265 OA
ENDBRANCH  10  16
ENDBRANCH   1  13
TORSDOF 3
ENDMDL
MODEL 4
REMARK VINA RESULT:      -6.5      8.249      9.431
REMARK  Name = 
REMARK  3 active torsions:
REMARK  status: ('A' for Active; 'I' for Inactive)
REMARK    1  A    between atoms: C_2  and  C_4
REMARK    2  A    between atoms: N_6  and  C_7
REMARK    3  A    between atoms: C_7  and  C_8
REMARK                            x       y       z     vdW  Elec       q    Type
REMARK                         _______ _______ _______ _____ _____    ______ ____
ROOT
ATOM      1  C   UNL     1      -0.446   5.394  -2.764  0.00  0.00    +0.160 C 
ENDROOT
BRANCH   1   2
ATOM      2  C   UNL     1      -0.718   6.051  -4.082  0.00  0.00    +0.057 A 
ATOM      3  C   UNL     1      -1.925   6.739  -4.142  0.00  0.00    +0.140 A 
ATOM      4  F   UNL     1      -2.396   7.446  -3.073  0.00  0.00    -0.204 F 
ATOM      5  C   UNL     1      -2.591   6.956  -5.340  0.00  0.00    +0.030 A 
ATOM      6  C   UNL     1      -2.393   6.023  -6.351  0.00  0.00    +0.005 A 
ATOM      7  C   UNL     1      -1.113   5.490  -6.412  0.00  0.00    +0.030 A 
ATOM      8  C   UNL     1      -0.387   5.352  -5.236  0.00  0.00    +0.140 A 
ATOM      9  F   UNL     1       0.617   4.455  -5.246  0.00  0.00    -0.204 F 
ENDBRANCH   1   2
BRANCH   1  13
ATOM     10  C   UNL     1       2.496   6.065  -0.919  0.00  0.00    +0.180 A 
ATOM     11  N   UNL     1       1.490   6.228  -0.027  0.00  0.00    -0.124 NA
ATOM     12  N   UNL     1       0.421   6.587  -0.738  0.00  0.00    -0.063 NA
ATOM     13  N   UNL     1       0.538   6.141  -1.988  0.00  0.00    -0.225 N 
ATOM     14  C   UNL     1       1.865   5.905  -2.135  0.00  0.00    +0.123 A 
BRANCH  10  16
ATOM     15  N   UNL     1       4.382   4.507  -0.859  0.00  0.00    -0.082 NA
ATOM     16  C   UNL     1       3.911   5.836  -0.602  0.00  0.00    +0.305 C 
ATOM     17  O   UNL     1       4.344   6.361   0.468  0.00  0.00    -0.265 OA
ENDBRANCH  10  16
ENDBRANCH   1  13
TORSDOF 3
ENDMDL
MODEL 5
REMARK VINA RESULT:      -6.4      3.737      6.088
REMARK  Name = 
REMARK  3 active torsions:
REMARK  status: ('A' for Active; 'I' for Inactive)
REMARK    1  A    between atoms: C_2  and  C_4
REMARK    2  A    between atoms: N_6  and  C_7
REMARK    3  A    between atoms: C_7  and  C_8
REMARK                            x       y       z     vdW  Elec       q    Type
REMARK                         _______ _______ _______ _____ _____    ______ ____
ROOT
ATOM      1  C   UNL     1       4.410   4.753  -9.464  0.00  0.00    +0.160 C 
ENDROOT
BRANCH   1   2
ATOM      2  C   UNL     1       5.274   5.970  -9.581  0.00  0.00    +0.057 A 
ATOM      3  C   UNL     1       4.877   6.863 -10.571  0.00  0.00    +0.140 A 
ATOM      4  F   UNL     1       3.558   7.105 -10.824  0.00  0.00    -0.204 F 
ATOM      5  C   UNL     1       5.771   7.732 -11.180  0.00  0.00    +0.030 A 
ATOM      6  C   UNL     1       7.100   7.329 -11.246  0.00  0.00    +0.005 A 
ATOM      7  C   UNL     1       7.548   6.609 -10.149  0.00  0.00    +0.030 A 
ATOM      8  C   UNL     1       6.648   5.804  -9.461  0.00  0.00    +0.140 A 
ATOM      9  F   UNL     1       7.170   4.807  -8.723  0.00  0.00    -0.204 F 
ENDBRANCH   1   2
BRANCH   1  13
ATOM     10  C   UNL     1       2.939   4.835  -6.248  0.00  0.00    +0.180 A 
ATOM     11  N   UNL     1       2.298   3.830  -6.889  0.00  0.00    -0.124 NA
ATOM     12  N   UNL     1       2.344   4.131  -8.187  0.00  0.00    -0.063 NA
ATOM     13  N   UNL     1       3.391   4.919  -8.432  0.00  0.00    -0.225 N 
ATOM     14  C   UNL     1       3.705   5.442  -7.222  0.00  0.00    +0.123 A 
BRANCH  10  16
ATOM     15  N   UNL     1       2.418   6.263  -4.329  0.00  0.00    -0.082 NA
ATOM     16  C   UNL     1       3.002   5.040  -4.795  0.00  0.00    +0.305 C 
ATOM     17  O   UNL     1       4.086   4.712  -4.224  0.00  0.00    -0.265 OA
ENDBRANCH  10  16
ENDBRANCH   1  13
TORSDOF 3
ENDMDL
MODEL 6
REMARK VINA RESULT:      -6.4      5.482      6.497
REMARK  Name = 
REMARK  3 active torsions:
REMARK  status: ('A' for Active; 'I' for Inactive)
REMARK    1  A    between atoms: C_2  and  C_4
REMARK    2  A    between atoms: N_6  and  C_7
REMARK    3  A    between atoms: C_7  and  C_8
REMARK                            x       y       z     vdW  Elec       q    Type
REMARK                         _______ _______ _______ _____ _____    ______ ____
ROOT
ATOM      1  C   UNL     1       1.165   4.519  -6.128  0.00  0.00    +0.160 C 
ENDROOT
BRANCH   1   2
ATOM      2  C   UNL     1       0.010   5.433  -5.861  0.00  0.00    +0.057 A 
ATOM      3  C   UNL     1      -0.384   5.486  -4.529  0.00  0.00    +0.140 A 
ATOM      4  F   UNL     1       0.528   5.451  -3.514  0.00  0.00    -0.204 F 
ATOM      5  C   UNL     1      -1.678   5.823  -4.156  0.00  0.00    +0.030 A 
ATOM      6  C   UNL     1      -2.693   5.532  -5.061  0.00  0.00    +0.005 A 
ATOM      7  C   UNL     1      -2.347   5.683  -6.396  0.00  0.00    +0.030 A 
ATOM      8  C   UNL     1      -1.033   5.445  -6.780  0.00  0.00    +0.140 A 
ATOM      9  F   UNL     1      -0.825   5.159  -8.078  0.00  0.00    -0.204 F 
ENDBRANCH   1   2
BRANCH   1  13
ATOM     10  C   UNL     1       3.911   6.572  -5.258  0.00  0.00    +0.180 A 
ATOM     11  N   UNL     1       3.242   7.280  -6.198  0.00  0.00    -0.124 NA
ATOM     12  N   UNL     1       2.620   6.382  -6.963  0.00  0.00    -0.063 NA
ATOM     13  N   UNL     1       2.413   5.262  -6.269  0.00  0.00    -0.225 N 
ATOM     14  C   UNL     1       3.299   5.336  -5.246  0.00  0.00    +0.123 A 
BRANCH  10  16
ATOM     15  N   UNL     1       4.732   6.616  -2.952  0.00  0.00    -0.082 NA
ATOM     16  C   UNL     1       4.878   7.107  -4.291  0.00  0.00    +0.305 C 
ATOM     17  O   UNL     1       5.145   8.343  -4.383  0.00  0.00    -0.265 OA
ENDBRANCH  10  16
ENDBRANCH   1  13
TORSDOF 3
ENDMDL
MODEL 7
REMARK VINA RESULT:      -6.4      4.228      5.562
REMARK  Name = 
REMARK  3 active torsions:
REMARK  status: ('A' for Active; 'I' for Inactive)
REMARK    1  A    between atoms: C_2  and  C_4
REMARK    2  A    between atoms: N_6  and  C_7
REMARK    3  A    between atoms: C_7  and  C_8
REMARK                            x       y       z     vdW  Elec       q    Type
REMARK                         _______ _______ _______ _____ _____    ______ ____
ROOT
ATOM      1  C   UNL     1       0.715   4.707  -5.857  0.00  0.00    +0.160 C 
ENDROOT
BRANCH   1   2
ATOM      2  C   UNL     1      -0.220   5.865  -6.013  0.00  0.00    +0.057 A 
ATOM      3  C   UNL     1      -0.121   6.823  -5.009  0.00  0.00    +0.140 A 
ATOM      4  F   UNL     1       1.085   7.165  -4.468  0.00  0.00    -0.204 F 
ATOM      5  C   UNL     1      -1.182   7.653  -4.676  0.00  0.00    +0.030 A 
ATOM      6  C   UNL     1      -2.463   7.163  -4.900  0.00  0.00    +0.005 A 
ATOM      7  C   UNL     1      -2.597   6.369  -6.029  0.00  0.00    +0.030 A 
ATOM      8  C   UNL     1      -1.515   5.600  -6.441  0.00  0.00    +0.140 A 
ATOM      9  F   UNL     1      -1.790   4.540  -7.224  0.00  0.00    -0.204 F 
ENDBRANCH   1   2
BRANCH   1  13
ATOM     10  C   UNL     1       2.301   5.028  -9.003  0.00  0.00    +0.180 A 
ATOM     11  N   UNL     1       2.519   3.741  -8.642  0.00  0.00    -0.124 NA
ATOM     12  N   UNL     1       2.507   3.725  -7.309  0.00  0.00    -0.063 NA
ATOM     13  N   UNL     1       1.784   4.746  -6.849  0.00  0.00    -0.225 N 
ATOM     14  C   UNL     1       1.738   5.615  -7.888  0.00  0.00    +0.123 A 
BRANCH  10  16
ATOM     15  N   UNL     1       1.269   5.299 -11.205  0.00  0.00    -0.082 NA
ATOM     16  C   UNL     1       2.393   5.578 -10.361  0.00  0.00    +0.305 C 
ATOM     17  O   UNL     1       3.524   5.498 -10.928  0.00  0.00    -0.265 OA
ENDBRANCH  10  16
ENDBRANCH   1  13
TORSDOF 3
ENDMDL
MODEL 8
REMARK VINA RESULT:      -6.3      3.759      5.815
REMARK  Name = 
REMARK  3 active torsions:
REMARK  status: ('A' for Active; 'I' for Inactive)
REMARK    1  A    between atoms: C_2  and  C_4
REMARK    2  A    between atoms: N_6  and  C_7
REMARK    3  A    between atoms: C_7  and  C_8
REMARK                            x       y       z     vdW  Elec       q    Type
REMARK                         _______ _______ _______ _____ _____    ______ ____
ROOT
ATOM      1  C   UNL     1       4.993   7.159 -10.813  0.00  0.00    +0.160 C 
ENDROOT
BRANCH   1   2
ATOM      2  C   UNL     1       5.944   6.121 -11.323  0.00  0.00    +0.057 A 
ATOM      3  C   UNL     1       7.092   5.967 -10.552  0.00  0.00    +0.140 A 
ATOM      4  F   UNL     1       7.050   6.046  -9.190  0.00  0.00    -0.204 F 
ATOM      5  C   UNL     1       8.278   5.484 -11.086  0.00  0.00    +0.030 A 
ATOM      6  C   UNL     1       8.502   5.713 -12.439  0.00  0.00    +0.005 A 
ATOM      7  C   UNL     1       7.368   5.660 -13.237  0.00  0.00    +0.030 A 
ATOM      8  C   UNL     1       6.148   6.047 -12.695  0.00  0.00    +0.140 A 
ATOM      9  F   UNL     1       5.190   6.413 -13.566  0.00  0.00    -0.204 F 
ENDBRANCH   1   2
BRANCH   1  13
ATOM     10  C   UNL     1       1.651   6.275 -10.061  0.00  0.00    +0.180 A 
ATOM     11  N   UNL     1       2.044   7.040  -9.016  0.00  0.00    -0.124 NA
ATOM     12  N   UNL     1       3.366   6.891  -8.925  0.00  0.00    -0.063 NA
ATOM     13  N   UNL     1       3.866   6.551 -10.113  0.00  0.00    -0.225 N 
ATOM     14  C   UNL     1       2.800   6.069 -10.797  0.00  0.00    +0.123 A 
BRANCH  10  16
ATOM     15  N   UNL     1       0.072   4.698 -11.066  0.00  0.00    -0.082 NA
ATOM     16  C   UNL     1       0.267   5.978 -10.451  0.00  0.00    +0.305 C 
ATOM     17  O   UNL     1      -0.391   6.929 -10.970  0.00  0.00    -0.265 OA
ENDBRANCH  10  16
ENDBRANCH   1  13
TORSDOF 3
ENDMDL
MODEL 9
REMARK VINA RESULT:      -6.3      5.972      8.053
REMARK  Name = 
REMARK  3 active torsions:
REMARK  status: ('A' for Active; 'I' for Inactive)
REMARK    1  A    between atoms: C_2  and  C_4
REMARK    2  A    between atoms: N_6  and  C_7
REMARK    3  A    between atoms: C_7  and  C_8
REMARK                            x       y       z     vdW  Elec       q    Type
REMARK                         _______ _______ _______ _____ _____    ______ ____
ROOT
ATOM      1  C   UNL     1       1.905   6.306  -5.886  0.00  0.00    +0.160 C 
ENDROOT
BRANCH   1   2
ATOM      2  C   UNL     1       1.903   5.780  -7.288  0.00  0.00    +0.057 A 
ATOM      3  C   UNL     1       2.214   4.429  -7.394  0.00  0.00    +0.140 A 
ATOM      4  F   UNL     1       1.777   3.522  -6.472  0.00  0.00    -0.204 F 
ATOM      5  C   UNL     1       2.762   3.888  -8.549  0.00  0.00    +0.030 A 
ATOM      6  C   UNL     1       3.528   4.735  -9.342  0.00  0.00    +0.005 A 
ATOM      7  C   UNL     1       3.085   6.048  -9.394  0.00  0.00    +0.030 A 
ATOM      8  C   UNL     1       2.445   6.584  -8.283  0.00  0.00    +0.140 A 
ATOM      9  F   UNL     1       2.434   7.926  -8.181  0.00  0.00    -0.204 F 
ENDBRANCH   1   2
BRANCH   1  13
ATOM     10  C   UNL     1      -0.992   5.823  -3.914  0.00  0.00    +0.180 A 
ATOM     11  N   UNL     1      -1.373   5.481  -5.167  0.00  0.00    -0.124 NA
ATOM     12  N   UNL     1      -0.596   6.182  -5.994  0.00  0.00    -0.063 NA
ATOM     13  N   UNL     1       0.548   6.494  -5.384  0.00  0.00    -0.225 N 
ATOM     14  C   UNL     1       0.269   6.363  -4.065  0.00  0.00    +0.123 A 
BRANCH  10  16
ATOM     15  N   UNL     1      -0.789   5.081  -1.590  0.00  0.00    -0.082 NA
ATOM     16  C   UNL     1      -1.665   5.443  -2.666  0.00  0.00    +0.305 C 
ATOM     17  O   UNL     1      -2.702   4.722  -2.779  0.00  0.00    -0.265 OA
ENDBRANCH  10  16
ENDBRANCH   1  13
TORSDOF 3
ENDMDL
