MODEL 1
REMARK VINA RESULT:      -5.3      0.000      0.000
REMARK  Name = 
REMARK  2 active torsions:
REMARK  status: ('A' for Active; 'I' for Inactive)
REMARK    1  A    between atoms: C_2  and  C_4
REMARK    2  A    between atoms: C_4  and  C_5
REMARK                            x       y       z     vdW  Elec       q    Type
REMARK                         _______ _______ _______ _____ _____    ______ ____
ROOT
ATOM      1  C   UNL     1      -1.822   6.635  -4.910  0.00  0.00    -0.021 A 
ATOM      2  C   UNL     1      -0.545   7.129  -5.103  0.00  0.00    -0.004 A 
ATOM      3  C   UNL     1       0.333   6.541  -5.993  0.00  0.00    -0.000 A 
ATOM      4  C   UNL     1      -0.132   5.449  -6.715  0.00  0.00    -0.000 A 
ATOM      5  C   UNL     1      -1.506   5.396  -6.920  0.00  0.00    -0.000 A 
ATOM      6  C   UNL     1      -2.344   5.820  -5.906  0.00  0.00    -0.004 A 
ENDROOT
BRANCH   1   7
ATOM      7  C   UNL     1      -2.590   6.828  -3.661  0.00  0.00    +0.045 C 
BRANCH   7   9
ATOM      8  C   UNL     1      -2.394   6.990  -1.281  0.00  0.00    +0.021 C 
ATOM      9  C   UNL     1      -1.649   6.109  -2.486  0.00  0.00    +0.096 C 
ATOM     10  N   UNL     1      -2.696   4.912  -2.321  0.00  0.00    -0.133 NA
ENDBRANCH   7   9
ENDBRANCH   1   7
TORSDOF 2
ENDMDL
MODEL 2
REMARK VINA RESULT:      -5.2      3.002      4.704
REMARK  Name = 
REMARK  2 active torsions:
REMARK  status: ('A' for Active; 'I' for Inactive)
REMARK    1  A    between atoms: C_2  and  C_4
REMARK    2  A    between atoms: C_4  and  C_5
REMARK                            x       y       z     vdW  Elec       q    Type
REMARK                         _______ _______ _______ _____ _____    ______ ____
ROOT
ATOM      1  C   UNL     1      -0.079   6.166  -6.426  0.00  0.00    -0.021 A 
ATOM      2  C   UNL     1      -0.109   6.955  -5.292  0.00  0.00    -0.004 A 
ATOM      3  C   UNL     1      -1.301   7.391  -4.744  0.00  0.00    -0.000 A 
ATOM      4  C   UNL     1      -2.473   6.975  -5.362  0.00  0.00    -0.000 A 
ATOM      5  C   UNL     1      -2.400   5.775  -6.059  0.00  0.00    -0.000 A 
ATOM      6  C   UNL     1      -1.242   5.482  -6.756  0.00  0.00    -0.004 A 
ENDROOT
BRANCH   1   7
ATOM      7  C   UNL     1       1.072   6.117  -7.354  0.00  0.00    +0.045 C 
BRANCH   7   9
ATOM      8  C   UNL     1       3.461   6.257  -7.348  0.00  0.00    +0.021 C 
ATOM      9  C   UNL     1       2.211   7.110  -6.646  0.00  0.00    +0.096 C 
ATOM     10  N   UNL     1       2.151   8.127  -7.879  0.00  0.00    -0.133 NA
ENDBRANCH   7   9
ENDBRANCH   1   7
TORSDOF 2
ENDMDL
MODEL 3
REMARK VINA RESULT:      -5.1      6.835      8.641
REMARK  Name = 
REMARK  2 active torsions:
REMARK  status: ('A' for Active; 'I' for Inactive)
REMARK    1  A    between atoms: C_2  and  C_4
REMARK    2  A    between atoms: C_4  and  C_5
REMARK                            x       y       z     vdW  Elec       q    Type
REMARK                         _______ _______ _______ _____ _____    ______ ____
ROOT
ATOM      1  C   UNL     1       5.090   6.122 -10.028  0.00  0.00    -0.021 A 
ATOM      2  C   UNL     1       6.285   5.768  -9.430  0.00  0.00    -0.004 A 
ATOM      3  C   UNL     1       7.500   6.203  -9.925  0.00  0.00    -0.000 A 
ATOM      4  C   UNL     1       7.470   7.044 -11.030  0.00  0.00    -0.000 A 
ATOM      5  C   UNL     1       6.317   7.805 -11.185  0.00  0.00    -0.000 A 
ATOM      6  C   UNL     1       5.100   7.238 -10.855  0.00  0.00    -0.004 A 
ENDROOT
BRANCH   1   7
ATOM      7  C   UNL     1       3.857   5.312  -9.928  0.00  0.00    +0.045 C 
BRANCH   7   9
ATOM      8  C   UNL     1       2.874   5.939  -7.837  0.00  0.00    +0.021 C 
ATOM      9  C   UNL     1       3.881   4.720  -8.368  0.00  0.00    +0.096 C 
ATOM     10  N   UNL     1       2.638   3.760  -8.668  0.00  0.00    -0.133 NA
ENDBRANCH   7   9
ENDBRANCH   1   7
TORSDOF 2
ENDMDL
MODEL 4
REMARK VINA RESULT:      -5.0      2.245      4.251
REMARK  Name = 
REMARK  2 active torsions:
REMARK  status: ('A' for Active; 'I' for Inactive)
REMARK    1  A    between atoms: C_2  and  C_4
REMARK    2  A    between atoms: C_4  and  C_5
REMARK                            x       y       z     vdW  Elec       q    Type
REMARK                         _______ _______ _______ _____ _____    ______ ____
ROOT
ATOM      1  C   UNL     1      -2.184   6.095  -5.153  0.00  0.00    -0.021 A 
ATOM      2  C   UNL     1      -2.905   5.435  -4.175  0.00  0.00    -0.004 A 
ATOM      3  C   UNL     1      -2.968   5.908  -2.878  0.00  0.00    -0.000 A 
ATOM      4  C   UNL     1      -2.304   7.097  -2.603  0.00  0.00    -0.000 A 
ATOM      5  C   UNL     1      -2.141   7.964  -3.676  0.00  0.00    -0.000 A 
ATOM      6  C   UNL     1      -1.882   7.432  -4.926  0.00  0.00    -0.004 A 
ENDROOT
BRANCH   1   7
ATOM      7  C   UNL     1      -1.626   5.424  -6.346  0.00  0.00    +0.045 C 
BRANCH   7   9
ATOM      8  C   UNL     1       0.594   4.647  -5.898  0.00  0.00    +0.021 C 
ATOM      9  C   UNL     1      -0.086   6.052  -6.486  0.00  0.00    +0.096 C 
ATOM     10  N   UNL     1       0.034   5.534  -7.994  0.00  0.00    -0.133 NA
ENDBRANCH   7   9
ENDBRANCH   1   7
TORSDOF 2
ENDMDL
MODEL 5
REMARK VINA RESULT:      -5.0      1.011      1.704
REMARK  Name = 
REMARK  2 active torsions:
REMARK  status: ('A' for Active; 'I' for Inactive)
REMARK    1  A    between atoms: C_2  and  C_4
REMARK    2  A    between atoms: C_4  and  C_5
REMARK                            x       y       z     vdW  Elec       q    Type
REMARK                         _______ _______ _______ _____ _____    ______ ____
ROOT
ATOM      1  C   UNL     1      -1.366   5.593  -5.297  0.00  0.00    -0.021 A 
ATOM      2  C   UNL     1      -1.665   5.416  -6.635  0.00  0.00    -0.004 A 
ATOM      3  C   UNL     1      -0.680   5.425  -7.606  0.00  0.00    -0.000 A 
ATOM      4  C   UNL     1       0.631   5.585  -7.177  0.00  0.00    -0.000 A 
ATOM      5  C   UNL     1       0.903   5.161  -5.881  0.00  0.00    -0.000 A 
ATOM      6  C   UNL     1      -0.054   5.360  -4.904  0.00  0.00    -0.004 A 
ENDROOT
BRANCH   1   7
ATOM      7  C   UNL     1      -2.329   6.127  -4.311  0.00  0.00    +0.045 C 
BRANCH   7   9
ATOM      8  C   UNL     1      -2.402   7.148  -2.147  0.00  0.00    +0.021 C 
ATOM      9  C   UNL     1      -1.594   5.862  -2.836  0.00  0.00    +0.096 C 
ATOM     10  N   UNL     1      -2.747   4.844  -2.398  0.00  0.00    -0.133 NA
ENDBRANCH   7   9
ENDBRANCH   1   7
TORSDOF 2
ENDMDL
MODEL 6
REMARK VINA RESULT:      -4.9      3.074      5.014
REMARK  Name = 
REMARK  2 active torsions:
REMARK  status: ('A' for Active; 'I' for Inactive)
REMARK    1  A    between atoms: C_2  and  C_4
REMARK    2  A    between atoms: C_4  and  C_5
REMARK                            x       y       z     vdW  Elec       q    Type
REMARK                         _______ _______ _______ _____ _____    ______ ____
ROOT
ATOM      1  C   UNL     1      -0.034   6.013  -6.574  0.00  0.00    -0.021 A 
ATOM      2  C   UNL     1      -0.036   6.794  -5.433  0.00  0.00    -0.004 A 
ATOM      3  C   UNL     1      -1.213   7.234  -4.857  0.00  0.00    -0.000 A 
ATOM      4  C   UNL     1      -2.400   6.829  -5.454  0.00  0.00    -0.000 A 
ATOM      5  C   UNL     1      -2.349   5.634  -6.161  0.00  0.00    -0.000 A 
ATOM      6  C   UNL     1      -1.208   5.339  -6.884  0.00  0.00    -0.004 A 
ENDROOT
BRANCH   1   7
ATOM      7  C   UNL     1       1.097   5.964  -7.526  0.00  0.00    +0.045 C 
BRANCH   7   9
ATOM      8  C   UNL     1       1.039   6.703  -9.802  0.00  0.00    +0.021 C 
ATOM      9  C   UNL     1       0.413   5.415  -8.946  0.00  0.00    +0.096 C 
ATOM     10  N   UNL     1       1.698   4.518  -9.266  0.00  0.00    -0.133 NA
ENDBRANCH   7   9
ENDBRANCH   1   7
TORSDOF 2
ENDMDL
MODEL 7
REMARK VINA RESULT:      -4.9      2.820      4.473
REMARK  Name = 
REMARK  2 active torsions:
REMARK  status: ('A' for Active; 'I' for Inactive)
REMARK    1  A    between atoms: C_2  and  C_4
REMARK    2  A    between atoms: C_4  and  C_5
REMARK                            x       y       z     vdW  Elec       q    Type
REMARK                         _______ _______ _______ _____ _____    ______ ____
ROOT
ATOM      1  C   UNL     1      -0.269   5.702  -5.796  0.00  0.00    -0.021 A 
ATOM      2  C   UNL     1      -1.465   5.532  -6.468  0.00  0.00    -0.004 A 
ATOM      3  C   UNL     1      -2.606   6.222  -6.102  0.00  0.00    -0.000 A 
ATOM      4  C   UNL     1      -2.494   7.121  -5.050  0.00  0.00    -0.000 A 
ATOM      5  C   UNL     1      -1.231   7.664  -4.846  0.00  0.00    -0.000 A 
ATOM      6  C   UNL     1      -0.124   6.859  -5.041  0.00  0.00    -0.004 A 
ENDROOT
BRANCH   1   7
ATOM      7  C   UNL     1       0.790   4.672  -5.746  0.00  0.00    +0.045 C 
BRANCH   7   9
ATOM      8  C   UNL     1       3.135   4.960  -5.364  0.00  0.00    +0.021 C 
ATOM      9  C   UNL     1       2.064   5.354  -6.581  0.00  0.00    +0.096 C 
ATOM     10  N   UNL     1       2.355   3.979  -7.344  0.00  0.00    -0.133 NA
ENDBRANCH   7   9
ENDBRANCH   1   7
TORSDOF 2
ENDMDL
MODEL 8
REMARK VINA RESULT:      -4.5      2.606      3.856
REMARK  Name = 
REMARK  2 active torsions:
REMARK  status: ('A' for Active; 'I' for Inactive)
REMARK    1  A    between atoms: C_2  and  C_4
REMARK    2  A    between atoms: C_4  and  C_5
REMARK                            x       y       z     vdW  Elec       q    Type
REMARK                         _______ _______ _______ _____ _____    ______ ____
ROOT
ATOM      1  C   UNL     1      -0.071   6.460  -5.410  0.00  0.00    -0.021 A 
ATOM      2  C   UNL     1      -0.954   7.161  -4.610  0.00  0.00    -0.004 A 
ATOM      3  C   UNL     1      -2.306   7.212  -4.893  0.00  0.00    -0.000 A 
ATOM      4  C   UNL     1      -2.750   6.498  -5.999  0.00  0.00    -0.000 A 
ATOM      5  C   UNL     1      -1.980   5.398  -6.361  0.00  0.00    -0.000 A 
ATOM      6  C   UNL     1      -0.606   5.482  -6.239  0.00  0.00    -0.004 A 
ENDROOT
BRANCH   1   7
ATOM      7  C   UNL     1       1.368   6.783  -5.513  0.00  0.00    +0.045 C 
BRANCH   7   9
ATOM      8  C   UNL     1       2.901   5.049  -4.905  0.00  0.00    +0.021 C 
ATOM      9  C   UNL     1       2.020   6.207  -4.090  0.00  0.00    +0.096 C 
ATOM     10  N   UNL     1       3.228   7.251  -4.172  0.00  0.00    -0.133 NA
ENDBRANCH   7   9
ENDBRANCH   1   7
TORSDOF 2
ENDMDL
MODEL 9
REMARK VINA RESULT:      -4.4      1.730      2.301
REMARK  Name = 
REMARK  2 active torsions:
REMARK  status: ('A' for Active; 'I' for Inactive)
REMARK    1  A    between atoms: C_2  and  C_4
REMARK    2  A    between atoms: C_4  and  C_5
REMARK                            x       y       z     vdW  Elec       q    Type
REMARK                         _______ _______ _______ _____ _____    ______ ____
ROOT
ATOM      1  C   UNL     1      -1.399   6.100  -3.697  0.00  0.00    -0.021 A 
ATOM      2  C   UNL     1      -0.660   5.548  -4.727  0.00  0.00    -0.004 A 
ATOM      3  C   UNL     1      -1.137   5.516  -6.024  0.00  0.00    -0.000 A 
ATOM      4  C   UNL     1      -2.378   6.095  -6.258  0.00  0.00    -0.000 A 
ATOM      5  C   UNL     1      -2.754   7.104  -5.379  0.00  0.00    -0.000 A 
ATOM      6  C   UNL     1      -2.415   6.981  -4.044  0.00  0.00    -0.004 A 
ENDROOT
BRANCH   1   7
ATOM      7  C   UNL     1      -1.240   5.708  -2.280  0.00  0.00    +0.045 C 
BRANCH   7   9
ATOM      8  C   UNL     1       0.011   6.526  -0.411  0.00  0.00    +0.021 C 
ATOM      9  C   UNL     1       0.370   5.998  -1.952  0.00  0.00    +0.096 C 
ATOM     10  N   UNL     1       0.579   4.498  -1.439  0.00  0.00    -0.133 NA
ENDBRANCH   7   9
ENDBRANCH   1   7
TORSDOF 2
ENDMDL
