MODEL 1
REMARK VINA RESULT:      -6.5      0.000      0.000
REMARK  Name = 
REMARK  2 active torsions:
REMARK  status: ('A' for Active; 'I' for Inactive)
REMARK    1  A    between atoms: S_2  and  C_5
REMARK    2  A    between atoms: C_11  and  S_12
REMARK                            x       y       z     vdW  Elec       q    Type
REMARK                         _______ _______ _______ _____ _____    ______ ____
ROOT
ATOM      1  C   UNL     1       1.439   5.928  -6.009  0.00  0.00    +0.127 A 
ATOM      2  C   UNL     1       1.498   5.646  -4.652  0.00  0.00    +0.041 A 
ATOM      3  C   UNL     1       0.401   5.614  -3.830  0.00  0.00    +0.138 A 
ATOM      4  C   UNL     1      -0.858   5.619  -4.406  0.00  0.00    +0.087 A 
ATOM      5 CL   UNL     1      -2.257   5.203  -3.429  0.00  0.00    -0.080 Cl
ATOM      6  C   UNL     1      -0.951   5.682  -5.789  0.00  0.00    +0.071 A 
ATOM      7 CL   UNL     1      -2.534   5.968  -6.484  0.00  0.00    -0.081 Cl
ATOM      8  C   UNL     1       0.166   5.949  -6.566  0.00  0.00    +0.032 A 
ENDROOT
BRANCH   1  10
ATOM      9  N   UNL     1       2.056   8.087  -7.717  0.00  0.00    +0.039 NA
ATOM     10  S   UNL     1       2.752   6.844  -6.741  0.00  0.00    +0.094 S 
ATOM     11  O   UNL     1       3.618   7.488  -5.713  0.00  0.00    -0.150 OA
ATOM     12  O   UNL     1       3.494   5.901  -7.630  0.00  0.00    -0.150 OA
ENDBRANCH   1  10
BRANCH   3  13
ATOM     13  S   UNL     1       0.565   5.687  -2.079  0.00  0.00    +0.094 S 
ATOM     14  O   UNL     1      -0.382   6.719  -1.537  0.00  0.00    -0.150 OA
ATOM     15  O   UNL     1       0.329   4.369  -1.433  0.00  0.00    -0.150 OA
ATOM     16  N   UNL     1       2.169   6.279  -1.773  0.00  0.00    +0.039 NA
ENDBRANCH   3  13
TORSDOF 2
ENDMDL
MODEL 2
REMARK VINA RESULT:      -6.5      1.996      4.803
REMARK  Name = 
REMARK  2 active torsions:
REMARK  status: ('A' for Active; 'I' for Inactive)
REMARK    1  A    between atoms: S_2  and  C_5
REMARK    2  A    between atoms: C_11  and  S_12
REMARK                            x       y       z     vdW  Elec       q    Type
REMARK                         _______ _______ _______ _____ _____    ______ ____
ROOT
ATOM      1  C   UNL     1      -0.502   6.110  -3.547  0.00  0.00    +0.127 A 
ATOM      2  C   UNL     1       0.727   5.888  -4.152  0.00  0.00    +0.041 A 
ATOM      3  C   UNL     1       0.878   5.514  -5.462  0.00  0.00    +0.138 A 
ATOM      4  C   UNL     1      -0.219   5.591  -6.304  0.00  0.00    +0.087 A 
ATOM      5 CL   UNL     1       0.014   5.487  -8.041  0.00  0.00    -0.080 Cl
ATOM      6  C   UNL     1      -1.428   6.022  -5.774  0.00  0.00    +0.071 A 
ATOM      7 CL   UNL     1      -2.858   5.849  -6.772  0.00  0.00    -0.081 Cl
ATOM      8  C   UNL     1      -1.595   6.165  -4.405  0.00  0.00    +0.032 A 
ENDROOT
BRANCH   1  10
ATOM      9  N   UNL     1      -2.340   5.128  -1.647  0.00  0.00    +0.039 NA
ATOM     10  S   UNL     1      -0.710   5.653  -1.860  0.00  0.00    +0.094 S 
ATOM     11  O   UNL     1       0.196   4.533  -1.475  0.00  0.00    -0.150 OA
ATOM     12  O   UNL     1      -0.497   6.889  -1.049  0.00  0.00    -0.150 OA
ENDBRANCH   1  10
BRANCH   3  13
ATOM     13  S   UNL     1       2.389   4.831  -6.053  0.00  0.00    +0.094 S 
ATOM     14  O   UNL     1       2.141   3.433  -6.545  0.00  0.00    -0.150 OA
ATOM     15  O   UNL     1       3.005   5.661  -7.122  0.00  0.00    -0.150 OA
ATOM     16  N   UNL     1       3.425   4.691  -4.666  0.00  0.00    +0.039 NA
ENDBRANCH   3  13
TORSDOF 2
ENDMDL
MODEL 3
REMARK VINA RESULT:      -6.4      2.239      2.983
REMARK  Name = 
REMARK  2 active torsions:
REMARK  status: ('A' for Active; 'I' for Inactive)
REMARK    1  A    between atoms: S_2  and  C_5
REMARK    2  A    between atoms: C_11  and  S_12
REMARK                            x       y       z     vdW  Elec       q    Type
REMARK                         _______ _______ _______ _____ _____    ______ ____
ROOT
ATOM      1  C   UNL     1       1.837   5.171  -4.861  0.00  0.00    +0.127 A 
ATOM      2  C   UNL     1       0.805   5.294  -3.943  0.00  0.00    +0.041 A 
ATOM      3  C   UNL     1      -0.486   5.609  -4.282  0.00  0.00    +0.138 A 
ATOM      4  C   UNL     1      -0.850   5.566  -5.617  0.00  0.00    +0.087 A 
ATOM      5 CL   UNL     1      -2.551   5.590  -6.051  0.00  0.00    -0.080 Cl
ATOM      6  C   UNL     1       0.118   5.231  -6.554  0.00  0.00    +0.071 A 
ATOM      7 CL   UNL     1      -0.280   5.452  -8.246  0.00  0.00    -0.081 Cl
ATOM      8  C   UNL     1       1.456   5.151  -6.198  0.00  0.00    +0.032 A 
ENDROOT
BRANCH   1  10
ATOM      9  N   UNL     1       3.858   4.936  -2.908  0.00  0.00    +0.039 NA
ATOM     10  S   UNL     1       3.450   5.704  -4.399  0.00  0.00    +0.094 S 
ATOM     11  O   UNL     1       4.471   5.323  -5.416  0.00  0.00    -0.150 OA
ATOM     12  O   UNL     1       3.368   7.178  -4.169  0.00  0.00    -0.150 OA
ENDBRANCH   1  10
BRANCH   3  13
ATOM     13  S   UNL     1      -1.638   6.175  -3.077  0.00  0.00    +0.094 S 
ATOM     14  O   UNL     1      -0.914   6.450  -1.790  0.00  0.00    -0.150 OA
ATOM     15  O   UNL     1      -2.382   7.381  -3.528  0.00  0.00    -0.150 OA
ATOM     16  N   UNL     1      -2.703   4.837  -2.768  0.00  0.00    +0.039 NA
ENDBRANCH   3  13
TORSDOF 2
ENDMDL
MODEL 4
REMARK VINA RESULT:      -6.2      2.285      4.725
REMARK  Name = 
REMARK  2 active torsions:
REMARK  status: ('A' for Active; 'I' for Inactive)
REMARK    1  A    between atoms: S_2  and  C_5
REMARK    2  A    between atoms: C_11  and  S_12
REMARK                            x       y       z     vdW  Elec       q    Type
REMARK                         _______ _______ _______ _____ _____    ______ ____
ROOT
ATOM      1  C   UNL     1      -0.841   6.225  -3.847  0.00  0.00    +0.127 A 
ATOM      2  C   UNL     1       0.496   6.579  -3.745  0.00  0.00    +0.041 A 
ATOM      3  C   UNL     1       1.411   6.410  -4.751  0.00  0.00    +0.138 A 
ATOM      4  C   UNL     1       0.952   6.098  -6.019  0.00  0.00    +0.087 A 
ATOM      5 CL   UNL     1       2.036   6.242  -7.392  0.00  0.00    -0.080 Cl
ATOM      6  C   UNL     1      -0.415   5.947  -6.206  0.00  0.00    +0.071 A 
ATOM      7 CL   UNL     1      -0.956   5.283  -7.736  0.00  0.00    -0.081 Cl
ATOM      8  C   UNL     1      -1.281   5.895  -5.124  0.00  0.00    +0.032 A 
ENDROOT
BRANCH   1  10
ATOM      9  N   UNL     1      -2.313   6.915  -1.542  0.00  0.00    +0.039 NA
ATOM     10  S   UNL     1      -1.659   5.585  -2.426  0.00  0.00    +0.094 S 
ATOM     11  O   UNL     1      -2.779   4.673  -2.796  0.00  0.00    -0.150 OA
ATOM     12  O   UNL     1      -0.613   4.924  -1.587  0.00  0.00    -0.150 OA
ENDBRANCH   1  10
BRANCH   3  13
ATOM     13  S   UNL     1       3.142   6.462  -4.435  0.00  0.00    +0.094 S 
ATOM     14  O   UNL     1       3.747   5.129  -4.772  0.00  0.00    -0.150 OA
ATOM     15  O   UNL     1       3.822   7.550  -5.186  0.00  0.00    -0.150 OA
ATOM     16  N   UNL     1       3.309   6.661  -2.717  0.00  0.00    +0.039 NA
ENDBRANCH   3  13
TORSDOF 2
ENDMDL
MODEL 5
REMARK VINA RESULT:      -6.1      6.801      8.675
REMARK  Name = 
REMARK  2 active torsions:
REMARK  status: ('A' for Active; 'I' for Inactive)
REMARK    1  A    between atoms: S_2  and  C_5
REMARK    2  A    between atoms: C_11  and  S_12
REMARK                            x       y       z     vdW  Elec       q    Type
REMARK                         _______ _______ _______ _____ _____    ______ ____
ROOT
ATOM      1  C   UNL     1       2.765   5.452 -10.686  0.00  0.00    +0.127 A 
ATOM      2  C   UNL     1       3.835   5.505 -11.566  0.00  0.00    +0.041 A 
ATOM      3  C   UNL     1       5.132   5.725 -11.180  0.00  0.00    +0.138 A 
ATOM      4  C   UNL     1       5.444   5.651  -9.833  0.00  0.00    +0.087 A 
ATOM      5 CL   UNL     1       7.126   5.552  -9.338  0.00  0.00    -0.080 Cl
ATOM      6  C   UNL     1       4.421   5.382  -8.933  0.00  0.00    +0.071 A 
ATOM      7 CL   UNL     1       4.773   5.567  -7.226  0.00  0.00    -0.081 Cl
ATOM      8  C   UNL     1       3.095   5.399  -9.337  0.00  0.00    +0.032 A 
ENDROOT
BRANCH   1  10
ATOM      9  N   UNL     1       1.432   6.855 -12.739  0.00  0.00    +0.039 NA
ATOM     10  S   UNL     1       1.212   6.101 -11.202  0.00  0.00    +0.094 S 
ATOM     11  O   UNL     1       0.186   5.029 -11.350  0.00  0.00    -0.150 OA
ATOM     12  O   UNL     1       0.830   7.149 -10.208  0.00  0.00    -0.150 OA
ENDBRANCH   1  10
BRANCH   3  13
ATOM     13  S   UNL     1       6.364   6.211 -12.339  0.00  0.00    +0.094 S 
ATOM     14  O   UNL     1       5.712   6.512 -13.658  0.00  0.00    -0.150 OA
ATOM     15  O   UNL     1       7.154   7.380 -11.868  0.00  0.00    -0.150 OA
ATOM     16  N   UNL     1       7.365   4.814 -12.589  0.00  0.00    +0.039 NA
ENDBRANCH   3  13
TORSDOF 2
ENDMDL
MODEL 6
REMARK VINA RESULT:      -6.1      5.627      8.448
REMARK  Name = 
REMARK  2 active torsions:
REMARK  status: ('A' for Active; 'I' for Inactive)
REMARK    1  A    between atoms: S_2  and  C_5
REMARK    2  A    between atoms: C_11  and  S_12
REMARK                            x       y       z     vdW  Elec       q    Type
REMARK                         _______ _______ _______ _____ _____    ______ ____
ROOT
ATOM      1  C   UNL     1       2.728   5.945 -10.061  0.00  0.00    +0.127 A 
ATOM      2  C   UNL     1       3.353   5.807 -11.292  0.00  0.00    +0.041 A 
ATOM      3  C   UNL     1       2.703   5.902 -12.495  0.00  0.00    +0.138 A 
ATOM      4  C   UNL     1       1.411   6.399 -12.511  0.00  0.00    +0.087 A 
ATOM      5 CL   UNL     1       0.691   6.885 -14.038  0.00  0.00    -0.080 Cl
ATOM      6  C   UNL     1       0.825   6.755 -11.304  0.00  0.00    +0.071 A 
ATOM      7 CL   UNL     1      -0.890   7.115 -11.310  0.00  0.00    -0.081 Cl
ATOM      8  C   UNL     1       1.424   6.426 -10.098  0.00  0.00    +0.032 A 
ENDROOT
BRANCH   1  10
ATOM      9  N   UNL     1       2.951   5.807  -7.252  0.00  0.00    +0.039 NA
ATOM     10  S   UNL     1       3.278   4.952  -8.716  0.00  0.00    +0.094 S 
ATOM     11  O   UNL     1       2.562   3.645  -8.663  0.00  0.00    -0.150 OA
ATOM     12  O   UNL     1       4.758   4.808  -8.862  0.00  0.00    -0.150 OA
ENDBRANCH   1  10
BRANCH   3  13
ATOM     13  S   UNL     1       3.429   5.297 -13.980  0.00  0.00    +0.094 S 
ATOM     14  O   UNL     1       2.609   4.151 -14.501  0.00  0.00    -0.150 OA
ATOM     15  O   UNL     1       3.566   6.356 -15.015  0.00  0.00    -0.150 OA
ATOM     16  N   UNL     1       4.970   4.636 -13.525  0.00  0.00    +0.039 NA
ENDBRANCH   3  13
TORSDOF 2
ENDMDL
MODEL 7
REMARK VINA RESULT:      -6.0      3.124      5.572
REMARK  Name = 
REMARK  2 active torsions:
REMARK  status: ('A' for Active; 'I' for Inactive)
REMARK    1  A    between atoms: S_2  and  C_5
REMARK    2  A    between atoms: C_11  and  S_12
REMARK                            x       y       z     vdW  Elec       q    Type
REMARK                         _______ _______ _______ _____ _____    ______ ____
ROOT
ATOM      1  C   UNL     1      -0.233   5.708  -4.183  0.00  0.00    +0.127 A 
ATOM      2  C   UNL     1       0.219   5.640  -5.493  0.00  0.00    +0.041 A 
ATOM      3  C   UNL     1       1.411   6.167  -5.918  0.00  0.00    +0.138 A 
ATOM      4  C   UNL     1       2.332   6.575  -4.967  0.00  0.00    +0.087 A 
ATOM      5 CL   UNL     1       3.989   6.897  -5.449  0.00  0.00    -0.080 Cl
ATOM      6  C   UNL     1       1.993   6.454  -3.626  0.00  0.00    +0.071 A 
ATOM      7 CL   UNL     1       3.040   7.225  -2.452  0.00  0.00    -0.081 Cl
ATOM      8  C   UNL     1       0.697   6.139  -3.245  0.00  0.00    +0.032 A 
ENDROOT
BRANCH   1  10
ATOM      9  N   UNL     1      -2.409   4.864  -2.599  0.00  0.00    +0.039 NA
ATOM     10  S   UNL     1      -1.957   5.912  -3.893  0.00  0.00    +0.094 S 
ATOM     11  O   UNL     1      -2.290   7.311  -3.499  0.00  0.00    -0.150 OA
ATOM     12  O   UNL     1      -2.660   5.467  -5.135  0.00  0.00    -0.150 OA
ENDBRANCH   1  10
BRANCH   3  13
ATOM     13  S   UNL     1       1.736   6.442  -7.626  0.00  0.00    +0.094 S 
ATOM     14  O   UNL     1       2.982   5.700  -8.018  0.00  0.00    -0.150 OA
ATOM     15  O   UNL     1       0.595   6.041  -8.490  0.00  0.00    -0.150 OA
ATOM     16  N   UNL     1       2.100   8.133  -7.778  0.00  0.00    +0.039 NA
ENDBRANCH   3  13
TORSDOF 2
ENDMDL
MODEL 8
REMARK VINA RESULT:      -6.0      4.958      6.357
REMARK  Name = 
REMARK  2 active torsions:
REMARK  status: ('A' for Active; 'I' for Inactive)
REMARK    1  A    between atoms: S_2  and  C_5
REMARK    2  A    between atoms: C_11  and  S_12
REMARK                            x       y       z     vdW  Elec       q    Type
REMARK                         _______ _______ _______ _____ _____    ______ ____
ROOT
ATOM      1  C   UNL     1       5.022   5.703 -10.503  0.00  0.00    +0.127 A 
ATOM      2  C   UNL     1       4.339   5.878  -9.309  0.00  0.00    +0.041 A 
ATOM      3  C   UNL     1       3.044   6.318  -9.226  0.00  0.00    +0.138 A 
ATOM      4  C   UNL     1       2.285   6.365 -10.383  0.00  0.00    +0.087 A 
ATOM      5 CL   UNL     1       0.543   6.557 -10.268  0.00  0.00    -0.080 Cl
ATOM      6  C   UNL     1       2.881   5.986 -11.578  0.00  0.00    +0.071 A 
ATOM      7 CL   UNL     1       2.005   6.313 -13.061  0.00  0.00    -0.081 Cl
ATOM      8  C   UNL     1       4.249   5.774 -11.656  0.00  0.00    +0.032 A 
ENDROOT
BRANCH   1  10
ATOM      9  N   UNL     1       7.440   5.181 -11.860  0.00  0.00    +0.039 NA
ATOM     10  S   UNL     1       6.743   6.072 -10.556  0.00  0.00    +0.094 S 
ATOM     11  O   UNL     1       6.991   7.523 -10.796  0.00  0.00    -0.150 OA
ATOM     12  O   UNL     1       7.330   5.578  -9.274  0.00  0.00    -0.150 OA
ENDBRANCH   1  10
BRANCH   3  13
ATOM     13  S   UNL     1       2.378   6.931  -7.716  0.00  0.00    +0.094 S 
ATOM     14  O   UNL     1       2.100   8.401  -7.859  0.00  0.00    -0.150 OA
ATOM     15  O   UNL     1       1.149   6.204  -7.303  0.00  0.00    -0.150 OA
ATOM     16  N   UNL     1       3.645   6.780  -6.538  0.00  0.00    +0.039 NA
ENDBRANCH   3  13
TORSDOF 2
ENDMDL
MODEL 9
REMARK VINA RESULT:      -6.0      3.508      4.034
REMARK  Name = 
REMARK  2 active torsions:
REMARK  status: ('A' for Active; 'I' for Inactive)
REMARK    1  A    between atoms: S_2  and  C_5
REMARK    2  A    between atoms: C_11  and  S_12
REMARK                            x       y       z     vdW  Elec       q    Type
REMARK                         _______ _______ _______ _____ _____    ______ ____
ROOT
ATOM      1  C   UNL     1       1.708   6.272  -5.107  0.00  0.00    +0.127 A 
ATOM      2  C   UNL     1       1.280   6.042  -3.808  0.00  0.00    +0.041 A 
ATOM      3  C   UNL     1       2.088   6.153  -2.706  0.00  0.00    +0.138 A 
ATOM      4  C   UNL     1       3.325   6.758  -2.850  0.00  0.00    +0.087 A 
ATOM      5 CL   UNL     1       4.216   7.255  -1.421  0.00  0.00    -0.080 Cl
ATOM      6  C   UNL     1       3.700   7.202  -4.111  0.00  0.00    +0.071 A 
ATOM      7 CL   UNL     1       5.363   7.706  -4.332  0.00  0.00    -0.081 Cl
ATOM      8  C   UNL     1       2.961   6.862  -5.234  0.00  0.00    +0.032 A 
ENDROOT
BRANCH   1  10
ATOM      9  N   UNL     1      -0.648   5.568  -6.489  0.00  0.00    +0.039 NA
ATOM     10  S   UNL     1       1.051   5.280  -6.404  0.00  0.00    +0.094 S 
ATOM     11  O   UNL     1       1.651   5.626  -7.724  0.00  0.00    -0.150 OA
ATOM     12  O   UNL     1       1.273   3.855  -6.012  0.00  0.00    -0.150 OA
ENDBRANCH   1  10
BRANCH   3  13
ATOM     13  S   UNL     1       1.635   5.442  -1.161  0.00  0.00    +0.094 S 
ATOM     14  O   UNL     1       2.636   4.385  -0.790  0.00  0.00    -0.150 OA
ATOM     15  O   UNL     1       1.522   6.457  -0.081  0.00  0.00    -0.150 OA
ATOM     16  N   UNL     1       0.129   4.621  -1.435  0.00  0.00    +0.039 NA
ENDBRANCH   3  13
TORSDOF 2
ENDMDL
