MODEL 1
REMARK VINA RESULT:      -7.2      0.000      0.000
REMARK  Name = 
REMARK  5 active torsions:
REMARK  status: ('A' for Active; 'I' for Inactive)
REMARK    1  A    between atoms: C_2  and  C_4
REMARK    2  A    between atoms: C_4  and  S_5
REMARK    3  A    between atoms: S_5  and  C_7
REMARK    4  A    between atoms: C_7  and  C_8
REMARK    5  A    between atoms: C_7  and  C_14
REMARK                            x       y       z     vdW  Elec       q    Type
REMARK                         _______ _______ _______ _____ _____    ______ ____
ROOT
ATOM      1  C   UNL     1       3.811   5.597 -10.170  0.00  0.00    +0.124 C 
ENDROOT
BRANCH   1   2
ATOM      2  C   UNL     1       5.126   6.256 -10.082  0.00  0.00    -0.006 A 
ATOM      3  C   UNL     1       5.440   7.264 -10.975  0.00  0.00    -0.003 A 
ATOM      4  C   UNL     1       6.698   7.810 -11.048  0.00  0.00    -0.000 A 
ATOM      5  C   UNL     1       7.755   7.022 -10.615  0.00  0.00    -0.000 A 
ATOM      6  C   UNL     1       7.505   6.068  -9.662  0.00  0.00    -0.000 A 
ATOM      7  C   UNL     1       6.207   5.646  -9.459  0.00  0.00    -0.003 A 
ENDBRANCH   1   2
BRANCH   1   8
ATOM      8  C   UNL     1       2.937   5.914  -8.996  0.00  0.00    -0.006 A 
ATOM      9  C   UNL     1       2.519   7.211  -8.727  0.00  0.00    -0.003 A 
ATOM     10  C   UNL     1       2.032   7.582  -7.479  0.00  0.00    -0.000 A 
ATOM     11  C   UNL     1       2.360   6.721  -6.437  0.00  0.00    -0.000 A 
ATOM     12  C   UNL     1       2.306   5.369  -6.752  0.00  0.00    -0.000 A 
ATOM     13  C   UNL     1       2.598   4.967  -8.050  0.00  0.00    -0.003 A 
ENDBRANCH   1   8
BRANCH   1  14
ATOM     14  S   UNL     1       2.872   6.219 -11.620  0.00  0.00    +0.059 S 
ATOM     15  O   UNL     1       1.564   5.388 -11.493  0.00  0.00    -0.255 OA
BRANCH  14  16
ATOM     16  C   UNL     1       3.686   5.332 -13.007  0.00  0.00    +0.180 C 
BRANCH  16  18
ATOM     17  N   UNL     1       2.327   6.204 -14.845  0.00  0.00    -0.087 NA
ATOM     18  C   UNL     1       2.557   5.129 -13.973  0.00  0.00    +0.274 C 
ATOM     19  O   UNL     1       2.570   3.990 -14.536  0.00  0.00    -0.271 OA
ENDBRANCH  16  18
ENDBRANCH  14  16
ENDBRANCH   1  14
TORSDOF 5
ENDMDL
MODEL 2
REMARK VINA RESULT:      -7.0      3.751      5.594
REMARK  Name = 
REMARK  5 active torsions:
REMARK  status: ('A' for Active; 'I' for Inactive)
REMARK    1  A    between atoms: C_2  and  C_4
REMARK    2  A    between atoms: C_4  and  S_5
REMARK    3  A    between atoms: S_5  and  C_7
REMARK    4  A    between atoms: C_7  and  C_8
REMARK    5  A    between atoms: C_7  and  C_14
REMARK                            x       y       z     vdW  Elec       q    Type
REMARK                         _______ _______ _______ _____ _____    ______ ____
ROOT
ATOM      1  C   UNL     1       1.032   5.915  -7.819  0.00  0.00    +0.124 C 
ENDROOT
BRANCH   1   2
ATOM      2  C   UNL     1       0.501   5.810  -9.190  0.00  0.00    -0.006 A 
ATOM      3  C   UNL     1       0.639   4.620  -9.881  0.00  0.00    -0.003 A 
ATOM      4  C   UNL     1       0.308   4.503 -11.209  0.00  0.00    -0.000 A 
ATOM      5  C   UNL     1       0.333   5.662 -11.970  0.00  0.00    -0.000 A 
ATOM      6  C   UNL     1       0.111   6.859 -11.339  0.00  0.00    -0.000 A 
ATOM      7  C   UNL     1       0.268   6.935  -9.970  0.00  0.00    -0.003 A 
ENDBRANCH   1   2
BRANCH   1   8
ATOM      8  C   UNL     1      -0.052   5.904  -6.787  0.00  0.00    -0.006 A 
ATOM      9  C   UNL     1      -1.240   5.211  -6.985  0.00  0.00    -0.003 A 
ATOM     10  C   UNL     1      -2.379   5.476  -6.233  0.00  0.00    -0.000 A 
ATOM     11  C   UNL     1      -2.385   6.705  -5.583  0.00  0.00    -0.000 A 
ATOM     12  C   UNL     1      -1.168   7.083  -5.028  0.00  0.00    -0.000 A 
ATOM     13  C   UNL     1       0.009   6.673  -5.642  0.00  0.00    -0.003 A 
ENDBRANCH   1   8
BRANCH   1  14
ATOM     14  S   UNL     1       2.066   4.454  -7.412  0.00  0.00    +0.059 S 
ATOM     15  O   UNL     1       1.648   4.207  -5.936  0.00  0.00    -0.255 OA
BRANCH  14  16
ATOM     16  C   UNL     1       3.718   5.217  -7.158  0.00  0.00    +0.180 C 
BRANCH  16  18
ATOM     17  N   UNL     1       5.755   5.212  -8.513  0.00  0.00    -0.087 NA
ATOM     18  C   UNL     1       4.359   5.067  -8.505  0.00  0.00    +0.274 C 
ATOM     19  O   UNL     1       3.932   4.066  -9.161  0.00  0.00    -0.271 OA
ENDBRANCH  16  18
ENDBRANCH  14  16
ENDBRANCH   1  14
TORSDOF 5
ENDMDL
MODEL 3
REMARK VINA RESULT:      -6.9      4.943      7.257
REMARK  Name = 
REMARK  5 active torsions:
REMARK  status: ('A' for Active; 'I' for Inactive)
REMARK    1  A    between atoms: C_2  and  C_4
REMARK    2  A    between atoms: C_4  and  S_5
REMARK    3  A    between atoms: S_5  and  C_7
REMARK    4  A    between atoms: C_7  and  C_8
REMARK    5  A    between atoms: C_7  and  C_14
REMARK                            x       y       z     vdW  Elec       q    Type
REMARK                         _______ _______ _______ _____ _____    ______ ____
ROOT
ATOM      1  C   UNL     1       0.909   5.093  -7.519  0.00  0.00    +0.124 C 
ENDROOT
BRANCH   1   2
ATOM      2  C   UNL     1      -0.155   5.829  -6.813  0.00  0.00    -0.006 A 
ATOM      3  C   UNL     1       0.184   6.692  -5.786  0.00  0.00    -0.003 A 
ATOM      4  C   UNL     1      -0.763   7.287  -4.989  0.00  0.00    -0.000 A 
ATOM      5  C   UNL     1      -1.985   6.640  -4.870  0.00  0.00    -0.000 A 
ATOM      6  C   UNL     1      -2.401   5.844  -5.905  0.00  0.00    -0.000 A 
ATOM      7  C   UNL     1      -1.473   5.390  -6.820  0.00  0.00    -0.003 A 
ENDBRANCH   1   2
BRANCH   1   8
ATOM      8  C   UNL     1       0.912   5.371  -8.990  0.00  0.00    -0.006 A 
ATOM      9  C   UNL     1       0.903   6.668  -9.487  0.00  0.00    -0.003 A 
ATOM     10  C   UNL     1       0.541   6.949 -10.800  0.00  0.00    -0.000 A 
ATOM     11  C   UNL     1      -0.179   5.947 -11.441  0.00  0.00    -0.000 A 
ATOM     12  C   UNL     1       0.248   4.652 -11.174  0.00  0.00    -0.000 A 
ATOM     13  C   UNL     1       0.800   4.368  -9.932  0.00  0.00    -0.003 A 
ENDBRANCH   1   8
BRANCH   1  14
ATOM     14  S   UNL     1       2.565   5.643  -6.947  0.00  0.00    +0.059 S 
ATOM     15  O   UNL     1       3.476   4.968  -8.010  0.00  0.00    -0.255 OA
BRANCH  14  16
ATOM     16  C   UNL     1       2.859   4.531  -5.514  0.00  0.00    +0.180 C 
BRANCH  16  18
ATOM     17  N   UNL     1       4.897   4.876  -4.204  0.00  0.00    -0.087 NA
ATOM     18  C   UNL     1       3.651   5.400  -4.583  0.00  0.00    +0.274 C 
ATOM     19  O   UNL     1       3.678   6.622  -4.929  0.00  0.00    -0.271 OA
ENDBRANCH  16  18
ENDBRANCH  14  16
ENDBRANCH   1  14
TORSDOF 5
ENDMDL
MODEL 4
REMARK VINA RESULT:      -6.8      3.712      5.902
REMARK  Name = 
REMARK  5 active torsions:
REMARK  status: ('A' for Active; 'I' for Inactive)
REMARK    1  A    between atoms: C_2  and  C_4
REMARK    2  A    between atoms: C_4  and  S_5
REMARK    3  A    between atoms: S_5  and  C_7
REMARK    4  A    between atoms: C_7  and  C_8
REMARK    5  A    between atoms: C_7  and  C_14
REMARK                            x       y       z     vdW  Elec       q    Type
REMARK                         _______ _______ _______ _____ _____    ______ ____
ROOT
ATOM      1  C   UNL     1       1.505   6.466  -7.114  0.00  0.00    +0.124 C 
ENDROOT
BRANCH   1   2
ATOM      2  C   UNL     1       0.242   6.236  -6.390  0.00  0.00    -0.006 A 
ATOM      3  C   UNL     1      -0.762   5.502  -6.996  0.00  0.00    -0.003 A 
ATOM      4  C   UNL     1      -2.014   5.382  -6.444  0.00  0.00    -0.000 A 
ATOM      5  C   UNL     1      -2.424   6.390  -5.584  0.00  0.00    -0.000 A 
ATOM      6  C   UNL     1      -1.464   7.085  -4.894  0.00  0.00    -0.000 A 
ATOM      7  C   UNL     1      -0.160   7.059  -5.346  0.00  0.00    -0.003 A 
ENDBRANCH   1   2
BRANCH   1   8
ATOM      8  C   UNL     1       2.704   6.094  -6.297  0.00  0.00    -0.006 A 
ATOM      9  C   UNL     1       2.818   4.847  -5.697  0.00  0.00    -0.003 A 
ATOM     10  C   UNL     1       3.714   4.610  -4.660  0.00  0.00    -0.000 A 
ATOM     11  C   UNL     1       4.176   5.747  -4.008  0.00  0.00    -0.000 A 
ATOM     12  C   UNL     1       4.448   6.830  -4.834  0.00  0.00    -0.000 A 
ATOM     13  C   UNL     1       3.700   6.999  -5.992  0.00  0.00    -0.003 A 
ENDBRANCH   1   8
BRANCH   1  14
ATOM     14  S   UNL     1       1.608   5.387  -8.595  0.00  0.00    +0.059 S 
ATOM     15  O   UNL     1       3.126   5.481  -8.915  0.00  0.00    -0.255 OA
BRANCH  14  16
ATOM     16  C   UNL     1       0.933   6.480  -9.908  0.00  0.00    +0.180 C 
BRANCH  16  18
ATOM     17  N   UNL     1       1.300   5.483 -12.112  0.00  0.00    -0.087 NA
ATOM     18  C   UNL     1       0.500   5.501 -10.959  0.00  0.00    +0.274 C 
ATOM     19  O   UNL     1       0.220   4.352 -10.496  0.00  0.00    -0.271 OA
ENDBRANCH  16  18
ENDBRANCH  14  16
ENDBRANCH   1  14
TORSDOF 5
ENDMDL
MODEL 5
REMARK VINA RESULT:      -6.8      5.916      8.771
REMARK  Name = 
REMARK  5 active torsions:
REMARK  status: ('A' for Active; 'I' for Inactive)
REMARK    1  A    between atoms: C_2  and  C_4
REMARK    2  A    between atoms: C_4  and  S_5
REMARK    3  A    between atoms: S_5  and  C_7
REMARK    4  A    between atoms: C_7  and  C_8
REMARK    5  A    between atoms: C_7  and  C_14
REMARK                            x       y       z     vdW  Elec       q    Type
REMARK                         _______ _______ _______ _____ _____    ______ ____
ROOT
ATOM      1  C   UNL     1       0.856   5.345  -5.031  0.00  0.00    +0.124 C 
ENDROOT
BRANCH   1   2
ATOM      2  C   UNL     1      -0.518   5.875  -4.995  0.00  0.00    -0.006 A 
ATOM      3  C   UNL     1      -1.412   5.511  -5.986  0.00  0.00    -0.003 A 
ATOM      4  C   UNL     1      -2.653   6.087  -6.098  0.00  0.00    -0.000 A 
ATOM      5  C   UNL     1      -2.809   7.359  -5.568  0.00  0.00    -0.000 A 
ATOM      6  C   UNL     1      -2.003   7.731  -4.523  0.00  0.00    -0.000 A 
ATOM      7  C   UNL     1      -0.835   7.032  -4.295  0.00  0.00    -0.003 A 
ENDBRANCH   1   2
BRANCH   1   8
ATOM      8  C   UNL     1       1.596   5.766  -6.263  0.00  0.00    -0.006 A 
ATOM      9  C   UNL     1       1.954   7.091  -6.480  0.00  0.00    -0.003 A 
ATOM     10  C   UNL     1       2.300   7.560  -7.742  0.00  0.00    -0.000 A 
ATOM     11  C   UNL     1       1.886   6.764  -8.803  0.00  0.00    -0.000 A 
ATOM     12  C   UNL     1       2.002   5.395  -8.592  0.00  0.00    -0.000 A 
ATOM     13  C   UNL     1       1.855   4.897  -7.304  0.00  0.00    -0.003 A 
ENDBRANCH   1   8
BRANCH   1  14
ATOM     14  S   UNL     1       1.850   6.025  -3.646  0.00  0.00    +0.059 S 
ATOM     15  O   UNL     1       3.134   5.156  -3.759  0.00  0.00    -0.255 OA
BRANCH  14  16
ATOM     16  C   UNL     1       1.055   5.239  -2.188  0.00  0.00    +0.180 C 
BRANCH  16  18
ATOM     17  N   UNL     1       2.244   6.255  -0.306  0.00  0.00    -0.087 NA
ATOM     18  C   UNL     1       2.180   5.173  -1.198  0.00  0.00    +0.274 C 
ATOM     19  O   UNL     1       2.308   4.034  -0.651  0.00  0.00    -0.271 OA
ENDBRANCH  16  18
ENDBRANCH  14  16
ENDBRANCH   1  14
TORSDOF 5
ENDMDL
MODEL 6
REMARK VINA RESULT:      -6.7      5.883      7.564
REMARK  Name = 
REMARK  5 active torsions:
REMARK  status: ('A' for Active; 'I' for Inactive)
REMARK    1  A    between atoms: C_2  and  C_4
REMARK    2  A    between atoms: C_4  and  S_5
REMARK    3  A    between atoms: S_5  and  C_7
REMARK    4  A    between atoms: C_7  and  C_8
REMARK    5  A    between atoms: C_7  and  C_14
REMARK                            x       y       z     vdW  Elec       q    Type
REMARK                         _______ _______ _______ _____ _____    ______ ____
ROOT
ATOM      1  C   UNL     1       1.425   6.854  -4.755  0.00  0.00    +0.124 C 
ENDROOT
BRANCH   1   2
ATOM      2  C   UNL     1       2.288   6.911  -5.948  0.00  0.00    -0.006 A 
ATOM      3  C   UNL     1       1.810   7.505  -7.102  0.00  0.00    -0.003 A 
ATOM      4  C   UNL     1       2.499   7.455  -8.289  0.00  0.00    -0.000 A 
ATOM      5  C   UNL     1       3.382   6.400  -8.462  0.00  0.00    -0.000 A 
ATOM      6  C   UNL     1       3.949   5.837  -7.348  0.00  0.00    -0.000 A 
ATOM      7  C   UNL     1       3.356   6.040  -6.118  0.00  0.00    -0.003 A 
ENDBRANCH   1   2
BRANCH   1   8
ATOM      8  C   UNL     1       0.060   6.324  -5.065  0.00  0.00    -0.006 A 
ATOM      9  C   UNL     1      -0.123   5.214  -5.881  0.00  0.00    -0.003 A 
ATOM     10  C   UNL     1      -1.349   4.930  -6.471  0.00  0.00    -0.000 A 
ATOM     11  C   UNL     1      -2.236   5.998  -6.532  0.00  0.00    -0.000 A 
ATOM     12  C   UNL     1      -2.259   6.811  -5.406  0.00  0.00    -0.000 A 
ATOM     13  C   UNL     1      -1.093   6.970  -4.667  0.00  0.00    -0.003 A 
ENDBRANCH   1   8
BRANCH   1  14
ATOM     14  S   UNL     1       2.104   5.676  -3.521  0.00  0.00    +0.059 S 
ATOM     15  O   UNL     1       0.868   5.482  -2.598  0.00  0.00    -0.255 OA
BRANCH  14  16
ATOM     16  C   UNL     1       3.126   6.779  -2.466  0.00  0.00    +0.180 C 
BRANCH  16  18
ATOM     17  N   UNL     1       3.805   5.640  -0.409  0.00  0.00    -0.087 NA
ATOM     18  C   UNL     1       4.048   5.815  -1.781  0.00  0.00    +0.274 C 
ATOM     19  O   UNL     1       4.220   4.734  -2.425  0.00  0.00    -0.271 OA
ENDBRANCH  16  18
ENDBRANCH  14  16
ENDBRANCH   1  14
TORSDOF 5
ENDMDL
MODEL 7
REMARK VINA RESULT:      -6.6      3.370      5.069
REMARK  Name = 
REMARK  5 active torsions:
REMARK  status: ('A' for Active; 'I' for Inactive)
REMARK    1  A    between atoms: C_2  and  C_4
REMARK    2  A    between atoms: C_4  and  S_5
REMARK    3  A    between atoms: S_5  and  C_7
REMARK    4  A    between atoms: C_7  and  C_8
REMARK    5  A    between atoms: C_7  and  C_14
REMARK                            x       y       z     vdW  Elec       q    Type
REMARK                         _______ _______ _______ _____ _____    ______ ____
ROOT
ATOM      1  C   UNL     1       1.306   5.148  -6.660  0.00  0.00    +0.124 C 
ENDROOT
BRANCH   1   2
ATOM      2  C   UNL     1       2.358   5.570  -5.718  0.00  0.00    -0.006 A 
ATOM      3  C   UNL     1       3.005   6.775  -5.922  0.00  0.00    -0.003 A 
ATOM      4  C   UNL     1       4.095   7.154  -5.177  0.00  0.00    -0.000 A 
ATOM      5  C   UNL     1       4.848   6.142  -4.600  0.00  0.00    -0.000 A 
ATOM      6  C   UNL     1       4.224   4.959  -4.299  0.00  0.00    -0.000 A 
ATOM      7  C   UNL     1       3.027   4.656  -4.914  0.00  0.00    -0.003 A 
ENDBRANCH   1   2
BRANCH   1   8
ATOM      8  C   UNL     1      -0.003   5.822  -6.389  0.00  0.00    -0.006 A 
ATOM      9  C   UNL     1      -0.098   6.912  -5.532  0.00  0.00    -0.003 A 
ATOM     10  C   UNL     1      -1.312   7.315  -4.987  0.00  0.00    -0.000 A 
ATOM     11  C   UNL     1      -2.319   6.357  -5.016  0.00  0.00    -0.000 A 
ATOM     12  C   UNL     1      -2.377   5.598  -6.179  0.00  0.00    -0.000 A 
ATOM     13  C   UNL     1      -1.201   5.333  -6.870  0.00  0.00    -0.003 A 
ENDBRANCH   1   8
BRANCH   1  14
ATOM     14  S   UNL     1       1.732   5.648  -8.374  0.00  0.00    +0.059 S 
ATOM     15  O   UNL     1       0.485   5.130  -9.143  0.00  0.00    -0.255 OA
BRANCH  14  16
ATOM     16  C   UNL     1       2.960   4.366  -8.848  0.00  0.00    +0.180 C 
BRANCH  16  18
ATOM     17  N   UNL     1       5.213   5.105  -8.241  0.00  0.00    -0.087 NA
ATOM     18  C   UNL     1       4.173   5.183  -9.181  0.00  0.00    +0.274 C 
ATOM     19  O   UNL     1       4.548   5.065 -10.389  0.00  0.00    -0.271 OA
ENDBRANCH  16  18
ENDBRANCH  14  16
ENDBRANCH   1  14
TORSDOF 5
ENDMDL
MODEL 8
REMARK VINA RESULT:      -6.6      2.984      4.531
REMARK  Name = 
REMARK  5 active torsions:
REMARK  status: ('A' for Active; 'I' for Inactive)
REMARK    1  A    between atoms: C_2  and  C_4
REMARK    2  A    between atoms: C_4  and  S_5
REMARK    3  A    between atoms: S_5  and  C_7
REMARK    4  A    between atoms: C_7  and  C_8
REMARK    5  A    between atoms: C_7  and  C_14
REMARK                            x       y       z     vdW  Elec       q    Type
REMARK                         _______ _______ _______ _____ _____    ______ ____
ROOT
ATOM      1  C   UNL     1       3.537   6.170  -9.441  0.00  0.00    +0.124 C 
ENDROOT
BRANCH   1   2
ATOM      2  C   UNL     1       4.849   6.356 -10.086  0.00  0.00    -0.006 A 
ATOM      3  C   UNL     1       5.947   5.668  -9.599  0.00  0.00    -0.003 A 
ATOM      4  C   UNL     1       7.221   5.912 -10.050  0.00  0.00    -0.000 A 
ATOM      5  C   UNL     1       7.471   7.165 -10.590  0.00  0.00    -0.000 A 
ATOM      6  C   UNL     1       6.427   7.845 -11.164  0.00  0.00    -0.000 A 
ATOM      7  C   UNL     1       5.134   7.480 -10.850  0.00  0.00    -0.003 A 
ENDBRANCH   1   2
BRANCH   1   8
ATOM      8  C   UNL     1       2.406   6.264 -10.418  0.00  0.00    -0.006 A 
ATOM      9  C   UNL     1       1.176   6.801 -10.058  0.00  0.00    -0.003 A 
ATOM     10  C   UNL     1       0.027   6.570 -10.807  0.00  0.00    -0.000 A 
ATOM     11  C   UNL     1       0.092   5.479 -11.667  0.00  0.00    -0.000 A 
ATOM     12  C   UNL     1       1.307   5.317 -12.321  0.00  0.00    -0.000 A 
ATOM     13  C   UNL     1       2.474   5.717 -11.683  0.00  0.00    -0.003 A 
ENDBRANCH   1   8
BRANCH   1  14
ATOM     14  S   UNL     1       3.395   4.480  -8.738  0.00  0.00    +0.059 S 
ATOM     15  O   UNL     1       1.920   4.143  -9.093  0.00  0.00    -0.255 OA
BRANCH  14  16
ATOM     16  C   UNL     1       3.224   4.830  -6.942  0.00  0.00    +0.180 C 
BRANCH  16  18
ATOM     17  N   UNL     1       1.160   4.020  -5.908  0.00  0.00    -0.087 NA
ATOM     18  C   UNL     1       1.739   4.960  -6.775  0.00  0.00    +0.274 C 
ATOM     19  O   UNL     1       1.353   6.155  -6.587  0.00  0.00    -0.271 OA
ENDBRANCH  16  18
ENDBRANCH  14  16
ENDBRANCH   1  14
TORSDOF 5
ENDMDL
MODEL 9
REMARK VINA RESULT:      -6.6      3.142      5.103
REMARK  Name = 
REMARK  5 active torsions:
REMARK  status: ('A' for Active; 'I' for Inactive)
REMARK    1  A    between atoms: C_2  and  C_4
REMARK    2  A    between atoms: C_4  and  S_5
REMARK    3  A    between atoms: S_5  and  C_7
REMARK    4  A    between atoms: C_7  and  C_8
REMARK    5  A    between atoms: C_7  and  C_14
REMARK                            x       y       z     vdW  Elec       q    Type
REMARK                         _______ _______ _______ _____ _____    ______ ____
ROOT
ATOM      1  C   UNL     1       2.558   4.728  -6.457  0.00  0.00    +0.124 C 
ENDROOT
BRANCH   1   2
ATOM      2  C   UNL     1       3.577   5.424  -5.651  0.00  0.00    -0.006 A 
ATOM      3  C   UNL     1       4.151   4.772  -4.574  0.00  0.00    -0.003 A 
ATOM      4  C   UNL     1       4.988   5.412  -3.694  0.00  0.00    -0.000 A 
ATOM      5  C   UNL     1       4.848   6.787  -3.576  0.00  0.00    -0.000 A 
ATOM      6  C   UNL     1       4.366   7.486  -4.653  0.00  0.00    -0.000 A 
ATOM      7  C   UNL     1       3.676   6.809  -5.638  0.00  0.00    -0.003 A 
ENDBRANCH   1   2
BRANCH   1   8
ATOM      8  C   UNL     1       1.194   5.320  -6.282  0.00  0.00    -0.006 A 
ATOM      9  C   UNL     1       0.590   5.402  -5.034  0.00  0.00    -0.003 A 
ATOM     10  C   UNL     1      -0.780   5.599  -4.893  0.00  0.00    -0.000 A 
ATOM     11  C   UNL     1      -1.537   5.307  -6.021  0.00  0.00    -0.000 A 
ATOM     12  C   UNL     1      -0.972   5.698  -7.228  0.00  0.00    -0.000 A 
ATOM     13  C   UNL     1       0.412   5.704  -7.353  0.00  0.00    -0.003 A 
ENDBRANCH   1   8
BRANCH   1  14
ATOM     14  S   UNL     1       2.912   4.913  -8.249  0.00  0.00    +0.059 S 
ATOM     15  O   UNL     1       2.660   3.461  -8.743  0.00  0.00    -0.255 OA
BRANCH  14  16
ATOM     16  C   UNL     1       4.749   4.948  -8.270  0.00  0.00    +0.180 C 
BRANCH  16  18
ATOM     17  N   UNL     1       4.254   6.716  -9.889  0.00  0.00    -0.087 NA
ATOM     18  C   UNL     1       5.048   5.598  -9.589  0.00  0.00    +0.274 C 
ATOM     19  O   UNL     1       6.289   5.763  -9.802  0.00  0.00    -0.271 OA
ENDBRANCH  16  18
ENDBRANCH  14  16
ENDBRANCH   1  14
TORSDOF 5
ENDMDL
