MODEL 1
REMARK VINA RESULT:      -6.6      0.000      0.000
REMARK  Name = 
REMARK  2 active torsions:
REMARK  status: ('A' for Active; 'I' for Inactive)
REMARK    1  A    between atoms: C_2  and  N_3
REMARK    2  A    between atoms: C_7  and  C_8
REMARK                            x       y       z     vdW  Elec       q    Type
REMARK                         _______ _______ _______ _____ _____    ______ ____
ROOT
ATOM      1  N   UNL     1       3.308   5.445  -7.657  0.00  0.00    -0.211 N 
ATOM      2  C   UNL     1       2.380   6.432  -7.175  0.00  0.00    +0.257 C 
ATOM      3  O   UNL     1       2.838   7.571  -6.838  0.00  0.00    -0.272 OA
ATOM      4  C   UNL     1       1.803   5.660  -5.855  0.00  0.00    +0.195 C 
ATOM      5  N   UNL     1       1.667   4.262  -6.600  0.00  0.00    -0.176 NA
ATOM      6  C   UNL     1       2.476   4.293  -7.710  0.00  0.00    +0.330 C 
ATOM      7  O   UNL     1       2.464   3.375  -8.587  0.00  0.00    -0.250 OA
ENDROOT
BRANCH   4   8
ATOM      8  C   UNL     1       0.274   6.145  -6.159  0.00  0.00    +0.006 A 
ATOM      9  C   UNL     1      -0.173   7.132  -5.286  0.00  0.00    -0.002 A 
ATOM     10  C   UNL     1      -1.494   7.064  -4.873  0.00  0.00    -0.000 A 
ATOM     11  C   UNL     1      -2.308   6.060  -5.371  0.00  0.00    -0.000 A 
ATOM     12  C   UNL     1      -1.950   5.533  -6.599  0.00  0.00    -0.000 A 
ATOM     13  C   UNL     1      -0.586   5.284  -6.720  0.00  0.00    -0.002 A 
ENDBRANCH   4   8
BRANCH   1  15
ATOM     14  C   UNL     1       5.273   5.264  -8.078  0.00  0.00    +0.024 C 
ATOM     15  C   UNL     1       4.570   5.618  -8.338  0.00  0.00    +0.103 C 
ENDBRANCH   1  15
TORSDOF 2
ENDMDL
MODEL 2
REMARK VINA RESULT:      -6.5      1.862      5.690
REMARK  Name = 
REMARK  2 active torsions:
REMARK  status: ('A' for Active; 'I' for Inactive)
REMARK    1  A    between atoms: C_2  and  N_3
REMARK    2  A    between atoms: C_7  and  C_8
REMARK                            x       y       z     vdW  Elec       q    Type
REMARK                         _______ _______ _______ _____ _____    ______ ____
ROOT
ATOM      1  N   UNL     1       1.293   5.439  -7.794  0.00  0.00    -0.211 N 
ATOM      2  C   UNL     1       2.172   6.391  -8.417  0.00  0.00    +0.257 C 
ATOM      3  O   UNL     1       1.664   7.462  -8.879  0.00  0.00    -0.272 OA
ATOM      4  C   UNL     1       2.750   5.482  -9.647  0.00  0.00    +0.195 C 
ATOM      5  N   UNL     1       2.956   4.193  -8.740  0.00  0.00    -0.176 NA
ATOM      6  C   UNL     1       2.170   4.332  -7.622  0.00  0.00    +0.330 C 
ATOM      7  O   UNL     1       2.235   3.530  -6.640  0.00  0.00    -0.250 OA
ENDROOT
BRANCH   4   8
ATOM      8  C   UNL     1       4.265   6.054  -9.445  0.00  0.00    +0.006 A 
ATOM      9  C   UNL     1       4.638   6.980 -10.415  0.00  0.00    -0.002 A 
ATOM     10  C   UNL     1       5.946   6.931 -10.871  0.00  0.00    -0.000 A 
ATOM     11  C   UNL     1       6.820   6.008 -10.321  0.00  0.00    -0.000 A 
ATOM     12  C   UNL     1       6.528   5.576  -9.040  0.00  0.00    -0.000 A 
ATOM     13  C   UNL     1       5.182   5.282  -8.845  0.00  0.00    -0.002 A 
ENDBRANCH   4   8
BRANCH   1  15
ATOM     14  C   UNL     1      -0.680   5.347  -7.383  0.00  0.00    +0.024 C 
ATOM     15  C   UNL     1       0.040   5.650  -7.107  0.00  0.00    +0.103 C 
ENDBRANCH   1  15
TORSDOF 2
ENDMDL
MODEL 3
REMARK VINA RESULT:      -6.4      1.079      2.470
REMARK  Name = 
REMARK  2 active torsions:
REMARK  status: ('A' for Active; 'I' for Inactive)
REMARK    1  A    between atoms: C_2  and  N_3
REMARK    2  A    between atoms: C_7  and  C_8
REMARK                            x       y       z     vdW  Elec       q    Type
REMARK                         _______ _______ _______ _____ _____    ______ ____
ROOT
ATOM      1  N   UNL     1       3.363   5.736  -7.137  0.00  0.00    -0.211 N 
ATOM      2  C   UNL     1       2.105   5.049  -7.029  0.00  0.00    +0.257 C 
ATOM      3  O   UNL     1       1.953   3.972  -7.688  0.00  0.00    -0.272 OA
ATOM      4  C   UNL     1       1.102   6.198  -7.614  0.00  0.00    +0.195 C 
ATOM      5  N   UNL     1       1.808   7.376  -6.814  0.00  0.00    -0.176 NA
ATOM      6  C   UNL     1       3.067   6.953  -6.462  0.00  0.00    +0.330 C 
ATOM      7  O   UNL     1       3.817   7.620  -5.685  0.00  0.00    -0.250 OA
ENDROOT
BRANCH   4   8
ATOM      8  C   UNL     1      -0.024   5.891  -6.473  0.00  0.00    +0.006 A 
ATOM      9  C   UNL     1      -1.150   5.242  -6.970  0.00  0.00    -0.002 A 
ATOM     10  C   UNL     1      -2.379   5.614  -6.452  0.00  0.00    -0.000 A 
ATOM     11  C   UNL     1      -2.429   6.569  -5.449  0.00  0.00    -0.000 A 
ATOM     12  C   UNL     1      -1.293   6.701  -4.671  0.00  0.00    -0.000 A 
ATOM     13  C   UNL     1      -0.113   6.699  -5.407  0.00  0.00    -0.002 A 
ENDBRANCH   4   8
BRANCH   1  15
ATOM     14  C   UNL     1       5.083   5.362  -8.125  0.00  0.00    +0.024 C 
ATOM     15  C   UNL     1       4.681   5.214  -7.415  0.00  0.00    +0.103 C 
ENDBRANCH   1  15
TORSDOF 2
ENDMDL
MODEL 4
REMARK VINA RESULT:      -6.2      3.483      6.754
REMARK  Name = 
REMARK  2 active torsions:
REMARK  status: ('A' for Active; 'I' for Inactive)
REMARK    1  A    between atoms: C_2  and  N_3
REMARK    2  A    between atoms: C_7  and  C_8
REMARK                            x       y       z     vdW  Elec       q    Type
REMARK                         _______ _______ _______ _____ _____    ______ ____
ROOT
ATOM      1  N   UNL     1       2.001   6.462  -9.981  0.00  0.00    -0.211 N 
ATOM      2  C   UNL     1       3.001   6.158 -10.967  0.00  0.00    +0.257 C 
ATOM      3  O   UNL     1       2.660   5.452 -11.969  0.00  0.00    -0.272 OA
ATOM      4  C   UNL     1       4.065   5.325 -10.047  0.00  0.00    +0.195 C 
ATOM      5  N   UNL     1       3.967   6.338  -8.826  0.00  0.00    -0.176 NA
ATOM      6  C   UNL     1       2.797   7.047  -8.958  0.00  0.00    +0.330 C 
ATOM      7  O   UNL     1       2.514   8.036  -8.215  0.00  0.00    -0.250 OA
ENDROOT
BRANCH   4   8
ATOM      8  C   UNL     1       5.345   6.056 -10.749  0.00  0.00    +0.006 A 
ATOM      9  C   UNL     1       6.569   5.534 -10.341  0.00  0.00    -0.002 A 
ATOM     10  C   UNL     1       7.613   6.426 -10.160  0.00  0.00    -0.000 A 
ATOM     11  C   UNL     1       7.408   7.770 -10.429  0.00  0.00    -0.000 A 
ATOM     12  C   UNL     1       6.405   8.068 -11.333  0.00  0.00    -0.000 A 
ATOM     13  C   UNL     1       5.239   7.336 -11.132  0.00  0.00    -0.002 A 
ENDBRANCH   4   8
BRANCH   1  15
ATOM     14  C   UNL     1       0.036   6.039  -9.807  0.00  0.00    +0.024 C 
ATOM     15  C   UNL     1       0.569   6.588 -10.125  0.00  0.00    +0.103 C 
ENDBRANCH   1  15
TORSDOF 2
ENDMDL
MODEL 5
REMARK VINA RESULT:      -6.2      1.786      6.018
REMARK  Name = 
REMARK  2 active torsions:
REMARK  status: ('A' for Active; 'I' for Inactive)
REMARK    1  A    between atoms: C_2  and  N_3
REMARK    2  A    between atoms: C_7  and  C_8
REMARK                            x       y       z     vdW  Elec       q    Type
REMARK                         _______ _______ _______ _____ _____    ______ ____
ROOT
ATOM      1  N   UNL     1       1.727   5.842  -8.001  0.00  0.00    -0.211 N 
ATOM      2  C   UNL     1       2.663   5.087  -8.789  0.00  0.00    +0.257 C 
ATOM      3  O   UNL     1       2.425   3.853  -8.984  0.00  0.00    -0.272 OA
ATOM      4  C   UNL     1       4.004   5.248  -7.868  0.00  0.00    +0.195 C 
ATOM      5  N   UNL     1       3.761   6.794  -7.593  0.00  0.00    -0.176 NA
ATOM      6  C   UNL     1       2.435   7.064  -7.833  0.00  0.00    +0.330 C 
ATOM      7  O   UNL     1       1.971   8.245  -7.843  0.00  0.00    -0.250 OA
ENDROOT
BRANCH   4   8
ATOM      8  C   UNL     1       4.955   5.474  -9.175  0.00  0.00    +0.006 A 
ATOM      9  C   UNL     1       6.289   5.148  -8.949  0.00  0.00    -0.002 A 
ATOM     10  C   UNL     1       7.250   5.957  -9.534  0.00  0.00    -0.000 A 
ATOM     11  C   UNL     1       6.847   7.010 -10.340  0.00  0.00    -0.000 A 
ATOM     12  C   UNL     1       5.605   6.886 -10.935  0.00  0.00    -0.000 A 
ATOM     13  C   UNL     1       4.621   6.410 -10.074  0.00  0.00    -0.002 A 
ENDBRANCH   4   8
BRANCH   1  15
ATOM     14  C   UNL     1      -0.033   5.515  -7.069  0.00  0.00    +0.024 C 
ATOM     15  C   UNL     1       0.308   5.645  -7.813  0.00  0.00    +0.103 C 
ENDBRANCH   1  15
TORSDOF 2
ENDMDL
MODEL 6
REMARK VINA RESULT:      -6.1      2.359      3.495
REMARK  Name = 
REMARK  2 active torsions:
REMARK  status: ('A' for Active; 'I' for Inactive)
REMARK    1  A    between atoms: C_2  and  N_3
REMARK    2  A    between atoms: C_7  and  C_8
REMARK                            x       y       z     vdW  Elec       q    Type
REMARK                         _______ _______ _______ _____ _____    ______ ____
ROOT
ATOM      1  N   UNL     1       0.916   4.933  -5.667  0.00  0.00    -0.211 N 
ATOM      2  C   UNL     1      -0.486   5.216  -5.810  0.00  0.00    +0.257 C 
ATOM      3  O   UNL     1      -1.041   4.948  -6.924  0.00  0.00    -0.272 OA
ATOM      4  C   UNL     1      -0.475   6.834  -5.578  0.00  0.00    +0.195 C 
ATOM      5  N   UNL     1       0.534   6.759  -4.352  0.00  0.00    -0.176 NA
ATOM      6  C   UNL     1       1.192   5.555  -4.418  0.00  0.00    +0.330 C 
ATOM      7  O   UNL     1       1.954   5.144  -3.490  0.00  0.00    -0.250 OA
ENDROOT
BRANCH   4   8
ATOM      8  C   UNL     1      -1.828   6.779  -4.667  0.00  0.00    +0.006 A 
ATOM      9  C   UNL     1      -1.896   7.797  -3.720  0.00  0.00    -0.002 A 
ATOM     10  C   UNL     1      -2.423   7.477  -2.479  0.00  0.00    -0.000 A 
ATOM     11  C   UNL     1      -2.889   6.192  -2.253  0.00  0.00    -0.000 A 
ATOM     12  C   UNL     1      -3.293   5.482  -3.369  0.00  0.00    -0.000 A 
ATOM     13  C   UNL     1      -2.422   5.598  -4.447  0.00  0.00    -0.002 A 
ENDBRANCH   4   8
BRANCH   1  15
ATOM     14  C   UNL     1       2.327   4.123  -6.860  0.00  0.00    +0.024 C 
ATOM     15  C   UNL     1       1.728   3.932  -6.320  0.00  0.00    +0.103 C 
ENDBRANCH   1  15
TORSDOF 2
ENDMDL
MODEL 7
REMARK VINA RESULT:      -6.0      3.528      6.861
REMARK  Name = 
REMARK  2 active torsions:
REMARK  status: ('A' for Active; 'I' for Inactive)
REMARK    1  A    between atoms: C_2  and  N_3
REMARK    2  A    between atoms: C_7  and  C_8
REMARK                            x       y       z     vdW  Elec       q    Type
REMARK                         _______ _______ _______ _____ _____    ______ ____
ROOT
ATOM      1  N   UNL     1       2.060   5.286 -10.305  0.00  0.00    -0.211 N 
ATOM      2  C   UNL     1       3.323   4.942  -9.710  0.00  0.00    +0.257 C 
ATOM      3  O   UNL     1       3.334   4.588  -8.488  0.00  0.00    -0.272 OA
ATOM      4  C   UNL     1       4.112   6.364  -9.877  0.00  0.00    +0.195 C 
ATOM      5  N   UNL     1       3.599   6.598 -11.362  0.00  0.00    -0.176 NA
ATOM      6  C   UNL     1       2.483   5.820 -11.553  0.00  0.00    +0.330 C 
ATOM      7  O   UNL     1       1.937   5.680 -12.690  0.00  0.00    -0.250 OA
ENDROOT
BRANCH   4   8
ATOM      8  C   UNL     1       5.499   5.619 -10.309  0.00  0.00    +0.006 A 
ATOM      9  C   UNL     1       6.484   5.678  -9.328  0.00  0.00    -0.002 A 
ATOM     10  C   UNL     1       7.792   5.858  -9.750  0.00  0.00    -0.000 A 
ATOM     11  C   UNL     1       8.060   5.927 -11.108  0.00  0.00    -0.000 A 
ATOM     12  C   UNL     1       7.154   5.303 -11.945  0.00  0.00    -0.000 A 
ATOM     13  C   UNL     1       5.826   5.547 -11.607  0.00  0.00    -0.002 A 
ENDBRANCH   4   8
BRANCH   1  15
ATOM     14  C   UNL     1       0.158   5.311  -9.631  0.00  0.00    +0.024 C 
ATOM     15  C   UNL     1       0.730   4.824  -9.981  0.00  0.00    +0.103 C 
ENDBRANCH   1  15
TORSDOF 2
ENDMDL
MODEL 8
REMARK VINA RESULT:      -6.0      2.368      3.291
REMARK  Name = 
REMARK  2 active torsions:
REMARK  status: ('A' for Active; 'I' for Inactive)
REMARK    1  A    between atoms: C_2  and  N_3
REMARK    2  A    between atoms: C_7  and  C_8
REMARK                            x       y       z     vdW  Elec       q    Type
REMARK                         _______ _______ _______ _____ _____    ______ ____
ROOT
ATOM      1  N   UNL     1       2.973   5.206  -4.572  0.00  0.00    -0.211 N 
ATOM      2  C   UNL     1       1.859   4.623  -5.269  0.00  0.00    +0.257 C 
ATOM      3  O   UNL     1       2.102   3.760  -6.172  0.00  0.00    -0.272 OA
ATOM      4  C   UNL     1       1.215   5.963  -5.948  0.00  0.00    +0.195 C 
ATOM      5  N   UNL     1       1.380   6.839  -4.633  0.00  0.00    -0.176 NA
ATOM      6  C   UNL     1       2.325   6.237  -3.838  0.00  0.00    +0.330 C 
ATOM      7  O   UNL     1       2.564   6.623  -2.652  0.00  0.00    -0.250 OA
ENDROOT
BRANCH   4   8
ATOM      8  C   UNL     1      -0.309   5.478  -5.619  0.00  0.00    +0.006 A 
ATOM      9  C   UNL     1      -1.128   5.433  -6.743  0.00  0.00    -0.002 A 
ATOM     10  C   UNL     1      -2.444   5.836  -6.587  0.00  0.00    -0.000 A 
ATOM     11  C   UNL     1      -2.890   6.218  -5.333  0.00  0.00    -0.000 A 
ATOM     12  C   UNL     1      -2.206   5.692  -4.252  0.00  0.00    -0.000 A 
ATOM     13  C   UNL     1      -0.824   5.716  -4.404  0.00  0.00    -0.002 A 
ENDBRANCH   4   8
BRANCH   1  15
ATOM     14  C   UNL     1       4.983   5.073  -4.455  0.00  0.00    +0.024 C 
ATOM     15  C   UNL     1       4.282   4.658  -4.300  0.00  0.00    +0.103 C 
ENDBRANCH   1  15
TORSDOF 2
ENDMDL
MODEL 9
REMARK VINA RESULT:      -5.9      2.314      3.221
REMARK  Name = 
REMARK  2 active torsions:
REMARK  status: ('A' for Active; 'I' for Inactive)
REMARK    1  A    between atoms: C_2  and  N_3
REMARK    2  A    between atoms: C_7  and  C_8
REMARK                            x       y       z     vdW  Elec       q    Type
REMARK                         _______ _______ _______ _____ _____    ______ ____
ROOT
ATOM      1  N   UNL     1       2.667   5.870  -4.056  0.00  0.00    -0.211 N 
ATOM      2  C   UNL     1       1.234   5.762  -4.086  0.00  0.00    +0.257 C 
ATOM      3  O   UNL     1       0.668   5.047  -3.198  0.00  0.00    -0.272 OA
ATOM      4  C   UNL     1       1.031   5.076  -5.555  0.00  0.00    +0.195 C 
ATOM      5  N   UNL     1       2.099   6.016  -6.262  0.00  0.00    -0.176 NA
ATOM      6  C   UNL     1       2.915   6.537  -5.287  0.00  0.00    +0.330 C 
ATOM      7  O   UNL     1       3.771   7.443  -5.528  0.00  0.00    -0.250 OA
ENDROOT
BRANCH   4   8
ATOM      8  C   UNL     1      -0.255   6.023  -5.893  0.00  0.00    +0.006 A 
ATOM      9  C   UNL     1      -0.236   7.238  -5.216  0.00  0.00    -0.002 A 
ATOM     10  C   UNL     1      -1.447   7.726  -4.751  0.00  0.00    -0.000 A 
ATOM     11  C   UNL     1      -2.607   7.016  -5.013  0.00  0.00    -0.000 A 
ATOM     12  C   UNL     1      -2.585   6.194  -6.124  0.00  0.00    -0.000 A 
ATOM     13  C   UNL     1      -1.415   5.451  -6.244  0.00  0.00    -0.002 A 
ENDBRANCH   4   8
BRANCH   1  15
ATOM     14  C   UNL     1       4.072   5.119  -2.817  0.00  0.00    +0.024 C 
ATOM     15  C   UNL     1       3.578   5.774  -2.938  0.00  0.00    +0.103 C 
ENDBRANCH   1  15
TORSDOF 2
ENDMDL
