MODEL 1
REMARK VINA RESULT:      -7.9      0.000      0.000
REMARK  Name = 
REMARK  7 active torsions:
REMARK  status: ('A' for Active; 'I' for Inactive)
REMARK    1  A    between atoms: C_2  and  C_3
REMARK    2  A    between atoms: C_6  and  C_7
REMARK    3  A    between atoms: C_7  and  C_8
REMARK    4  A    between atoms: C_8  and  O_9
REMARK    5  A    between atoms: O_9  and  C_10
REMARK    6  A    between atoms: C_13  and  C_14
REMARK    7  A    between atoms: C_14  and  C_15
REMARK                            x       y       z     vdW  Elec       q    Type
REMARK                         _______ _______ _______ _____ _____    ______ ____
ROOT
ATOM      1  C   UNL     1       4.059   6.248  -2.846  0.00  0.00    +0.139 A 
ATOM      2  C   UNL     1       3.928   7.367  -3.643  0.00  0.00    +0.037 A 
ATOM      3  C   UNL     1       3.981   7.214  -5.001  0.00  0.00    -0.001 A 
ATOM      4  C   UNL     1       4.269   6.006  -5.623  0.00  0.00    -0.021 A 
ATOM      5  C   UNL     1       4.276   4.891  -4.813  0.00  0.00    -0.001 A 
ATOM      6  C   UNL     1       4.411   5.057  -3.448  0.00  0.00    +0.037 A 
ENDROOT
BRANCH   4   7
ATOM      7  C   UNL     1       4.040   5.964  -7.079  0.00  0.00    +0.047 C 
BRANCH   7   8
ATOM      8  C   UNL     1       2.620   5.297  -7.352  0.00  0.00    +0.139 C 
ATOM      9  C   UNL     1       2.993   4.747  -8.765  0.00  0.00    +0.259 C 
ATOM     10  O   UNL     1       3.953   3.946  -8.948  0.00  0.00    -0.272 OA
ATOM     11  N   UNL     1       1.809   4.716  -9.528  0.00  0.00    -0.135 NA
ATOM     12  C   UNL     1       1.173   5.999  -9.568  0.00  0.00    +0.299 C 
ATOM     13  O   UNL     1      -0.064   6.086  -9.841  0.00  0.00    -0.261 OA
ATOM     14  S   UNL     1       1.828   6.852  -8.125  0.00  0.00    -0.046 S 
ENDBRANCH   7   8
ENDBRANCH   4   7
BRANCH   1  15
ATOM     15  O   UNL     1       3.583   6.190  -1.534  0.00  0.00    -0.475 OA
BRANCH  15  16
ATOM     16  C   UNL     1       2.200   6.477  -1.336  0.00  0.00    +0.212 C 
BRANCH  16  17
ATOM     17  C   UNL     1       1.483   5.159  -1.379  0.00  0.00    +0.093 C 
BRANCH  17  21
ATOM     18  C   UNL     1      -1.456   6.161  -4.098  0.00  0.00    -0.003 A 
ATOM     19  C   UNL     1      -1.828   5.633  -2.892  0.00  0.00    +0.094 A 
ATOM     20  N   UNL     1      -0.921   5.084  -2.048  0.00  0.00    -0.248 NA
ATOM     21  C   UNL     1       0.378   5.111  -2.347  0.00  0.00    +0.063 A 
ATOM     22  C   UNL     1       0.714   5.327  -3.675  0.00  0.00    +0.015 A 
ATOM     23  C   UNL     1      -0.216   5.796  -4.591  0.00  0.00    -0.002 A 
BRANCH  18  25
ATOM     24  C   UNL     1      -1.904   8.168  -4.569  0.00  0.00    +0.005 C 
ATOM     25  C   UNL     1      -2.217   7.241  -4.799  0.00  0.00    +0.028 C 
ENDBRANCH  18  25
ENDBRANCH  17  21
ENDBRANCH  16  17
ENDBRANCH  15  16
ENDBRANCH   1  15
TORSDOF 7
ENDMDL
MODEL 2
REMARK VINA RESULT:      -7.7      3.578      8.801
REMARK  Name = 
REMARK  7 active torsions:
REMARK  status: ('A' for Active; 'I' for Inactive)
REMARK    1  A    between atoms: C_2  and  C_3
REMARK    2  A    between atoms: C_6  and  C_7
REMARK    3  A    between atoms: C_7  and  C_8
REMARK    4  A    between atoms: C_8  and  O_9
REMARK    5  A    between atoms: O_9  and  C_10
REMARK    6  A    between atoms: C_13  and  C_14
REMARK    7  A    between atoms: C_14  and  C_15
REMARK                            x       y       z     vdW  Elec       q    Type
REMARK                         _______ _______ _______ _____ _____    ______ ____
ROOT
ATOM      1  C   UNL     1       0.407   5.687 -12.333  0.00  0.00    +0.139 A 
ATOM      2  C   UNL     1       0.327   6.866 -11.621  0.00  0.00    +0.037 A 
ATOM      3  C   UNL     1       0.351   6.811 -10.255  0.00  0.00    -0.001 A 
ATOM      4  C   UNL     1       0.342   5.620  -9.539  0.00  0.00    -0.021 A 
ATOM      5  C   UNL     1       0.540   4.469 -10.270  0.00  0.00    -0.001 A 
ATOM      6  C   UNL     1       0.330   4.499 -11.635  0.00  0.00    +0.037 A 
ENDROOT
BRANCH   4   7
ATOM      7  C   UNL     1       0.621   5.738  -8.096  0.00  0.00    +0.047 C 
BRANCH   7   8
ATOM      8  C   UNL     1       2.112   5.250  -7.826  0.00  0.00    +0.139 C 
ATOM      9  C   UNL     1       1.837   4.763  -6.367  0.00  0.00    +0.259 C 
ATOM     10  O   UNL     1       0.976   3.879  -6.098  0.00  0.00    -0.272 OA
ATOM     11  N   UNL     1       3.036   4.915  -5.643  0.00  0.00    -0.135 NA
ATOM     12  C   UNL     1       3.528   6.259  -5.711  0.00  0.00    +0.299 C 
ATOM     13  O   UNL     1       4.755   6.498  -5.485  0.00  0.00    -0.261 OA
ATOM     14  S   UNL     1       2.747   6.932  -7.186  0.00  0.00    -0.046 S 
ENDBRANCH   7   8
ENDBRANCH   4   7
BRANCH   1  15
ATOM     15  O   UNL     1       0.841   5.628 -13.659  0.00  0.00    -0.475 OA
BRANCH  15  16
ATOM     16  C   UNL     1       2.114   6.203 -13.947  0.00  0.00    +0.212 C 
BRANCH  16  17
ATOM     17  C   UNL     1       3.081   5.061 -14.054  0.00  0.00    +0.093 C 
BRANCH  17  21
ATOM     18  C   UNL     1       6.125   6.327 -11.571  0.00  0.00    -0.003 A 
ATOM     19  C   UNL     1       6.431   5.505 -12.619  0.00  0.00    +0.094 A 
ATOM     20  N   UNL     1       5.466   4.880 -13.337  0.00  0.00    -0.248 NA
ATOM     21  C   UNL     1       4.180   5.113 -13.078  0.00  0.00    +0.063 A 
ATOM     22  C   UNL     1       3.875   5.659 -11.840  0.00  0.00    +0.015 A 
ATOM     23  C   UNL     1       4.855   6.219 -11.033  0.00  0.00    -0.002 A 
BRANCH  18  25
ATOM     24  C   UNL     1       6.608   8.360 -11.275  0.00  0.00    +0.005 C 
ATOM     25  C   UNL     1       7.003   7.449 -11.115  0.00  0.00    +0.028 C 
ENDBRANCH  18  25
ENDBRANCH  17  21
ENDBRANCH  16  17
ENDBRANCH  15  16
ENDBRANCH   1  15
TORSDOF 7
ENDMDL
MODEL 3
REMARK VINA RESULT:      -7.6      3.451      8.338
REMARK  Name = 
REMARK  7 active torsions:
REMARK  status: ('A' for Active; 'I' for Inactive)
REMARK    1  A    between atoms: C_2  and  C_3
REMARK    2  A    between atoms: C_6  and  C_7
REMARK    3  A    between atoms: C_7  and  C_8
REMARK    4  A    between atoms: C_8  and  O_9
REMARK    5  A    between atoms: O_9  and  C_10
REMARK    6  A    between atoms: C_13  and  C_14
REMARK    7  A    between atoms: C_14  and  C_15
REMARK                            x       y       z     vdW  Elec       q    Type
REMARK                         _______ _______ _______ _____ _____    ______ ____
ROOT
ATOM      1  C   UNL     1       1.027   6.020  -8.830  0.00  0.00    +0.139 A 
ATOM      2  C   UNL     1       1.731   7.018  -8.187  0.00  0.00    +0.037 A 
ATOM      3  C   UNL     1       1.492   7.237  -6.859  0.00  0.00    -0.001 A 
ATOM      4  C   UNL     1       0.497   6.583  -6.144  0.00  0.00    -0.021 A 
ATOM      5  C   UNL     1      -0.106   5.517  -6.775  0.00  0.00    -0.001 A 
ATOM      6  C   UNL     1      -0.008   5.412  -8.149  0.00  0.00    +0.037 A 
ENDROOT
BRANCH   4   7
ATOM      7  C   UNL     1       0.541   6.755  -4.680  0.00  0.00    +0.047 C 
BRANCH   7   8
ATOM      8  C   UNL     1       0.819   5.338  -4.010  0.00  0.00    +0.139 C 
ATOM      9  C   UNL     1      -0.354   5.437  -2.983  0.00  0.00    +0.259 C 
ATOM     10  O   UNL     1      -1.557   5.582  -3.340  0.00  0.00    -0.272 OA
ATOM     11  N   UNL     1       0.026   4.703  -1.841  0.00  0.00    -0.135 NA
ATOM     12  C   UNL     1       1.280   5.157  -1.317  0.00  0.00    +0.299 C 
ATOM     13  O   UNL     1       1.971   4.392  -0.575  0.00  0.00    -0.261 OA
ATOM     14  S   UNL     1       2.060   5.985  -2.712  0.00  0.00    -0.046 S 
ENDBRANCH   7   8
ENDBRANCH   4   7
BRANCH   1  15
ATOM     15  O   UNL     1       1.478   5.405 -10.000  0.00  0.00    -0.475 OA
BRANCH  15  16
ATOM     16  C   UNL     1       2.734   5.841 -10.515  0.00  0.00    +0.212 C 
BRANCH  16  17
ATOM     17  C   UNL     1       3.788   5.194  -9.664  0.00  0.00    +0.093 C 
BRANCH  17  21
ATOM     18  C   UNL     1       7.560   6.416 -10.810  0.00  0.00    -0.003 A 
ATOM     19  C   UNL     1       7.424   5.699  -9.654  0.00  0.00    +0.094 A 
ATOM     20  N   UNL     1       6.208   5.457  -9.108  0.00  0.00    -0.248 NA
ATOM     21  C   UNL     1       5.100   5.855  -9.733  0.00  0.00    +0.063 A 
ATOM     22  C   UNL     1       5.239   6.845 -10.694  0.00  0.00    +0.015 A 
ATOM     23  C   UNL     1       6.483   7.189 -11.204  0.00  0.00    -0.002 A 
BRANCH  18  25
ATOM     24  C   UNL     1       8.491   5.707 -12.566  0.00  0.00    +0.005 C 
ATOM     25  C   UNL     1       8.711   6.257 -11.753  0.00  0.00    +0.028 C 
ENDBRANCH  18  25
ENDBRANCH  17  21
ENDBRANCH  16  17
ENDBRANCH  15  16
ENDBRANCH   1  15
TORSDOF 7
ENDMDL
MODEL 4
REMARK VINA RESULT:      -7.4      3.105      4.022
REMARK  Name = 
REMARK  7 active torsions:
REMARK  status: ('A' for Active; 'I' for Inactive)
REMARK    1  A    between atoms: C_2  and  C_3
REMARK    2  A    between atoms: C_6  and  C_7
REMARK    3  A    between atoms: C_7  and  C_8
REMARK    4  A    between atoms: C_8  and  O_9
REMARK    5  A    between atoms: O_9  and  C_10
REMARK    6  A    between atoms: C_13  and  C_14
REMARK    7  A    between atoms: C_14  and  C_15
REMARK                            x       y       z     vdW  Elec       q    Type
REMARK                         _______ _______ _______ _____ _____    ______ ____
ROOT
ATOM      1  C   UNL     1       1.892   6.249  -6.534  0.00  0.00    +0.139 A 
ATOM      2  C   UNL     1       1.899   7.430  -7.248  0.00  0.00    +0.037 A 
ATOM      3  C   UNL     1       2.683   7.516  -8.365  0.00  0.00    -0.001 A 
ATOM      4  C   UNL     1       3.561   6.514  -8.760  0.00  0.00    -0.021 A 
ATOM      5  C   UNL     1       3.447   5.309  -8.101  0.00  0.00    -0.001 A 
ATOM      6  C   UNL     1       2.808   5.275  -6.877  0.00  0.00    +0.037 A 
ENDROOT
BRANCH   4   7
ATOM      7  C   UNL     1       4.138   6.663 -10.109  0.00  0.00    +0.047 C 
BRANCH   7   8
ATOM      8  C   UNL     1       3.941   5.296 -10.900  0.00  0.00    +0.139 C 
ATOM      9  C   UNL     1       5.150   5.517 -11.865  0.00  0.00    +0.259 C 
ATOM     10  O   UNL     1       6.331   5.675 -11.445  0.00  0.00    -0.272 OA
ATOM     11  N   UNL     1       4.844   4.866 -13.076  0.00  0.00    -0.135 NA
ATOM     12  C   UNL     1       3.595   5.316 -13.616  0.00  0.00    +0.299 C 
ATOM     13  O   UNL     1       2.964   4.590 -14.445  0.00  0.00    -0.261 OA
ATOM     14  S   UNL     1       2.730   6.002 -12.195  0.00  0.00    -0.046 S 
ENDBRANCH   7   8
ENDBRANCH   4   7
BRANCH   1  15
ATOM     15  O   UNL     1       0.843   5.878  -5.690  0.00  0.00    -0.475 OA
BRANCH  15  16
ATOM     16  C   UNL     1      -0.050   4.877  -6.173  0.00  0.00    +0.212 C 
BRANCH  16  17
ATOM     17  C   UNL     1      -1.305   5.592  -6.584  0.00  0.00    +0.093 C 
BRANCH  17  21
ATOM     18  C   UNL     1      -2.759   6.632  -2.864  0.00  0.00    -0.003 A 
ATOM     19  C   UNL     1      -3.113   5.422  -3.393  0.00  0.00    +0.094 A 
ATOM     20  N   UNL     1      -2.855   5.111  -4.687  0.00  0.00    -0.248 NA
ATOM     21  C   UNL     1      -2.179   5.960  -5.460  0.00  0.00    +0.063 A 
ATOM     22  C   UNL     1      -2.120   7.281  -5.044  0.00  0.00    +0.015 A 
ATOM     23  C   UNL     1      -2.472   7.651  -3.753  0.00  0.00    -0.002 A 
BRANCH  18  25
ATOM     24  C   UNL     1      -1.704   7.466  -1.238  0.00  0.00    +0.005 C 
ATOM     25  C   UNL     1      -2.479   6.849  -1.410  0.00  0.00    +0.028 C 
ENDBRANCH  18  25
ENDBRANCH  17  21
ENDBRANCH  16  17
ENDBRANCH  15  16
ENDBRANCH   1  15
TORSDOF 7
ENDMDL
MODEL 5
REMARK VINA RESULT:      -7.4      3.609      8.425
REMARK  Name = 
REMARK  7 active torsions:
REMARK  status: ('A' for Active; 'I' for Inactive)
REMARK    1  A    between atoms: C_2  and  C_3
REMARK    2  A    between atoms: C_6  and  C_7
REMARK    3  A    between atoms: C_7  and  C_8
REMARK    4  A    between atoms: C_8  and  O_9
REMARK    5  A    between atoms: O_9  and  C_10
REMARK    6  A    between atoms: C_13  and  C_14
REMARK    7  A    between atoms: C_14  and  C_15
REMARK                            x       y       z     vdW  Elec       q    Type
REMARK                         _______ _______ _______ _____ _____    ______ ____
ROOT
ATOM      1  C   UNL     1       1.158   6.159  -8.153  0.00  0.00    +0.139 A 
ATOM      2  C   UNL     1      -0.020   5.441  -8.159  0.00  0.00    +0.037 A 
ATOM      3  C   UNL     1      -0.813   5.472  -7.045  0.00  0.00    -0.001 A 
ATOM      4  C   UNL     1      -0.444   6.102  -5.863  0.00  0.00    -0.021 A 
ATOM      5  C   UNL     1       0.675   6.905  -5.924  0.00  0.00    -0.001 A 
ATOM      6  C   UNL     1       1.566   6.731  -6.965  0.00  0.00    +0.037 A 
ENDROOT
BRANCH   4   7
ATOM      7  C   UNL     1      -1.511   6.252  -4.857  0.00  0.00    +0.047 C 
BRANCH   7   8
ATOM      8  C   UNL     1      -1.141   5.367  -3.586  0.00  0.00    +0.139 C 
ATOM      9  C   UNL     1      -2.602   5.289  -3.040  0.00  0.00    +0.259 C 
ATOM     10  O   UNL     1      -3.553   4.803  -3.715  0.00  0.00    -0.272 OA
ATOM     11  N   UNL     1      -2.519   5.179  -1.638  0.00  0.00    -0.135 NA
ATOM     12  C   UNL     1      -1.756   6.250  -1.069  0.00  0.00    +0.299 C 
ATOM     13  O   UNL     1      -1.234   6.116   0.081  0.00  0.00    -0.261 OA
ATOM     14  S   UNL     1      -0.750   6.841  -2.439  0.00  0.00    -0.046 S 
ENDBRANCH   7   8
ENDBRANCH   4   7
BRANCH   1  15
ATOM     15  O   UNL     1       1.800   6.575  -9.321  0.00  0.00    -0.475 OA
BRANCH  15  16
ATOM     16  C   UNL     1       2.445   5.566 -10.097  0.00  0.00    +0.212 C 
BRANCH  16  17
ATOM     17  C   UNL     1       3.568   5.036  -9.253  0.00  0.00    +0.093 C 
BRANCH  17  21
ATOM     18  C   UNL     1       7.238   6.320 -10.637  0.00  0.00    -0.003 A 
ATOM     19  C   UNL     1       7.170   5.727  -9.407  0.00  0.00    +0.094 A 
ATOM     20  N   UNL     1       5.982   5.482  -8.802  0.00  0.00    -0.248 NA
ATOM     21  C   UNL     1       4.839   5.752  -9.432  0.00  0.00    +0.063 A 
ATOM     22  C   UNL     1       4.901   6.638 -10.497  0.00  0.00    +0.015 A 
ATOM     23  C   UNL     1       6.111   6.989 -11.079  0.00  0.00    -0.002 A 
BRANCH  18  25
ATOM     24  C   UNL     1       8.087   6.096 -12.556  0.00  0.00    +0.005 C 
ATOM     25  C   UNL     1       8.372   6.119 -11.592  0.00  0.00    +0.028 C 
ENDBRANCH  18  25
ENDBRANCH  17  21
ENDBRANCH  16  17
ENDBRANCH  15  16
ENDBRANCH   1  15
TORSDOF 7
ENDMDL
MODEL 6
REMARK VINA RESULT:      -7.4      3.776      8.816
REMARK  Name = 
REMARK  7 active torsions:
REMARK  status: ('A' for Active; 'I' for Inactive)
REMARK    1  A    between atoms: C_2  and  C_3
REMARK    2  A    between atoms: C_6  and  C_7
REMARK    3  A    between atoms: C_7  and  C_8
REMARK    4  A    between atoms: C_8  and  O_9
REMARK    5  A    between atoms: O_9  and  C_10
REMARK    6  A    between atoms: C_13  and  C_14
REMARK    7  A    between atoms: C_14  and  C_15
REMARK                            x       y       z     vdW  Elec       q    Type
REMARK                         _______ _______ _______ _____ _____    ______ ____
ROOT
ATOM      1  C   UNL     1       1.165   6.240  -9.287  0.00  0.00    +0.139 A 
ATOM      2  C   UNL     1       0.131   5.588  -8.648  0.00  0.00    +0.037 A 
ATOM      3  C   UNL     1      -0.038   5.786  -7.306  0.00  0.00    -0.001 A 
ATOM      4  C   UNL     1       0.844   6.524  -6.526  0.00  0.00    -0.021 A 
ATOM      5  C   UNL     1       1.793   7.255  -7.206  0.00  0.00    -0.001 A 
ATOM      6  C   UNL     1       2.085   6.919  -8.514  0.00  0.00    +0.037 A 
ENDROOT
BRANCH   4   7
ATOM      7  C   UNL     1       0.380   6.842  -5.162  0.00  0.00    +0.047 C 
BRANCH   7   8
ATOM      8  C   UNL     1      -0.952   6.020  -4.873  0.00  0.00    +0.139 C 
ATOM      9  C   UNL     1      -1.722   7.222  -4.238  0.00  0.00    +0.259 C 
ATOM     10  O   UNL     1      -1.937   8.297  -4.865  0.00  0.00    -0.272 OA
ATOM     11  N   UNL     1      -2.622   6.689  -3.293  0.00  0.00    -0.135 NA
ATOM     12  C   UNL     1      -1.951   5.870  -2.328  0.00  0.00    +0.299 C 
ATOM     13  O   UNL     1      -2.603   5.001  -1.670  0.00  0.00    -0.261 OA
ATOM     14  S   UNL     1      -0.419   5.401  -3.148  0.00  0.00    -0.046 S 
ENDBRANCH   7   8
ENDBRANCH   4   7
BRANCH   1  15
ATOM     15  O   UNL     1       1.173   6.487 -10.662  0.00  0.00    -0.475 OA
BRANCH  15  16
ATOM     16  C   UNL     1       1.693   5.457 -11.500  0.00  0.00    +0.212 C 
BRANCH  16  17
ATOM     17  C   UNL     1       2.703   6.111 -12.397  0.00  0.00    +0.093 C 
BRANCH  17  21
ATOM     18  C   UNL     1       6.796   5.729 -12.023  0.00  0.00    -0.003 A 
ATOM     19  C   UNL     1       6.191   5.247 -13.151  0.00  0.00    +0.094 A 
ATOM     20  N   UNL     1       4.843   5.142 -13.243  0.00  0.00    -0.248 NA
ATOM     21  C   UNL     1       4.066   5.577 -12.252  0.00  0.00    +0.063 A 
ATOM     22  C   UNL     1       4.661   5.743 -11.011  0.00  0.00    +0.015 A 
ATOM     23  C   UNL     1       6.041   5.757 -10.865  0.00  0.00    -0.002 A 
BRANCH  18  25
ATOM     24  C   UNL     1       8.906   5.750 -12.003  0.00  0.00    +0.005 C 
ATOM     25  C   UNL     1       8.135   6.396 -12.023  0.00  0.00    +0.028 C 
ENDBRANCH  18  25
ENDBRANCH  17  21
ENDBRANCH  16  17
ENDBRANCH  15  16
ENDBRANCH   1  15
TORSDOF 7
ENDMDL
MODEL 7
REMARK VINA RESULT:      -7.4      2.347      4.467
REMARK  Name = 
REMARK  7 active torsions:
REMARK  status: ('A' for Active; 'I' for Inactive)
REMARK    1  A    between atoms: C_2  and  C_3
REMARK    2  A    between atoms: C_6  and  C_7
REMARK    3  A    between atoms: C_7  and  C_8
REMARK    4  A    between atoms: C_8  and  O_9
REMARK    5  A    between atoms: O_9  and  C_10
REMARK    6  A    between atoms: C_13  and  C_14
REMARK    7  A    between atoms: C_14  and  C_15
REMARK                            x       y       z     vdW  Elec       q    Type
REMARK                         _______ _______ _______ _____ _____    ______ ____
ROOT
ATOM      1  C   UNL     1      -2.035   6.677  -5.153  0.00  0.00    +0.139 A 
ATOM      2  C   UNL     1      -2.185   5.814  -6.218  0.00  0.00    +0.037 A 
ATOM      3  C   UNL     1      -1.063   5.330  -6.833  0.00  0.00    -0.001 A 
ATOM      4  C   UNL     1       0.223   5.747  -6.513  0.00  0.00    -0.021 A 
ATOM      5  C   UNL     1       0.349   6.513  -5.375  0.00  0.00    -0.001 A 
ATOM      6  C   UNL     1      -0.769   7.149  -4.870  0.00  0.00    +0.037 A 
ENDROOT
BRANCH   4   7
ATOM      7  C   UNL     1       1.319   4.948  -7.093  0.00  0.00    +0.047 C 
BRANCH   7   8
ATOM      8  C   UNL     1       2.200   5.893  -8.023  0.00  0.00    +0.139 C 
ATOM      9  C   UNL     1       2.353   4.850  -9.177  0.00  0.00    +0.259 C 
ATOM     10  O   UNL     1       1.359   4.357  -9.781  0.00  0.00    -0.272 OA
ATOM     11  N   UNL     1       3.589   5.101  -9.805  0.00  0.00    -0.135 NA
ATOM     12  C   UNL     1       4.672   5.075  -8.867  0.00  0.00    +0.299 C 
ATOM     13  O   UNL     1       5.765   5.660  -9.144  0.00  0.00    -0.261 OA
ATOM     14  S   UNL     1       3.879   5.374  -7.280  0.00  0.00    -0.046 S 
ENDBRANCH   7   8
ENDBRANCH   4   7
BRANCH   1  15
ATOM     15  O   UNL     1      -3.024   6.870  -4.186  0.00  0.00    -0.475 OA
BRANCH  15  16
ATOM     16  C   UNL     1      -3.240   5.805  -3.263  0.00  0.00    +0.212 C 
BRANCH  16  17
ATOM     17  C   UNL     1      -2.893   6.344  -1.906  0.00  0.00    +0.093 C 
BRANCH  17  21
ATOM     18  C   UNL     1       1.147   6.014  -1.128  0.00  0.00    -0.003 A 
ATOM     19  C   UNL     1       0.532   5.024  -1.843  0.00  0.00    +0.094 A 
ATOM     20  N   UNL     1      -0.817   4.957  -1.947  0.00  0.00    -0.248 NA
ATOM     21  C   UNL     1      -1.580   5.907  -1.407  0.00  0.00    +0.063 A 
ATOM     22  C   UNL     1      -1.003   6.697  -0.425  0.00  0.00    +0.015 A 
ATOM     23  C   UNL     1       0.370   6.716  -0.224  0.00  0.00    -0.002 A 
BRANCH  18  25
ATOM     24  C   UNL     1       2.703   6.693  -2.381  0.00  0.00    +0.005 C 
ATOM     25  C   UNL     1       2.535   6.499  -1.409  0.00  0.00    +0.028 C 
ENDBRANCH  18  25
ENDBRANCH  17  21
ENDBRANCH  16  17
ENDBRANCH  15  16
ENDBRANCH   1  15
TORSDOF 7
ENDMDL
MODEL 8
REMARK VINA RESULT:      -7.3      3.676      5.047
REMARK  Name = 
REMARK  7 active torsions:
REMARK  status: ('A' for Active; 'I' for Inactive)
REMARK    1  A    between atoms: C_2  and  C_3
REMARK    2  A    between atoms: C_6  and  C_7
REMARK    3  A    between atoms: C_7  and  C_8
REMARK    4  A    between atoms: C_8  and  O_9
REMARK    5  A    between atoms: O_9  and  C_10
REMARK    6  A    between atoms: C_13  and  C_14
REMARK    7  A    between atoms: C_14  and  C_15
REMARK                            x       y       z     vdW  Elec       q    Type
REMARK                         _______ _______ _______ _____ _____    ______ ____
ROOT
ATOM      1  C   UNL     1       0.962   5.737  -8.434  0.00  0.00    +0.139 A 
ATOM      2  C   UNL     1       1.252   5.392  -9.738  0.00  0.00    +0.037 A 
ATOM      3  C   UNL     1       2.397   5.877 -10.305  0.00  0.00    -0.001 A 
ATOM      4  C   UNL     1       3.234   6.790  -9.676  0.00  0.00    -0.021 A 
ATOM      5  C   UNL     1       2.986   7.024  -8.341  0.00  0.00    -0.001 A 
ATOM      6  C   UNL     1       1.748   6.694  -7.824  0.00  0.00    +0.037 A 
ENDROOT
BRANCH   4   7
ATOM      7  C   UNL     1       4.541   7.013 -10.322  0.00  0.00    +0.047 C 
BRANCH   7   8
ATOM      8  C   UNL     1       5.104   5.612 -10.826  0.00  0.00    +0.139 C 
ATOM      9  C   UNL     1       6.547   5.832 -10.269  0.00  0.00    +0.259 C 
ATOM     10  O   UNL     1       6.776   6.040  -9.044  0.00  0.00    -0.272 OA
ATOM     11  N   UNL     1       7.431   5.127 -11.109  0.00  0.00    -0.135 NA
ATOM     12  C   UNL     1       7.285   5.519 -12.479  0.00  0.00    +0.299 C 
ATOM     13  O   UNL     1       7.675   4.745 -13.406  0.00  0.00    -0.261 OA
ATOM     14  S   UNL     1       5.634   6.232 -12.551  0.00  0.00    -0.046 S 
ENDBRANCH   7   8
ENDBRANCH   4   7
BRANCH   1  15
ATOM     15  O   UNL     1       0.118   4.982  -7.617  0.00  0.00    -0.475 OA
BRANCH  15  16
ATOM     16  C   UNL     1      -0.293   5.577  -6.388  0.00  0.00    +0.212 C 
BRANCH  16  17
ATOM     17  C   UNL     1      -1.792   5.646  -6.431  0.00  0.00    +0.093 C 
BRANCH  17  21
ATOM     18  C   UNL     1      -2.454   6.655  -2.484  0.00  0.00    -0.003 A 
ATOM     19  C   UNL     1      -3.071   5.545  -2.991  0.00  0.00    +0.094 A 
ATOM     20  N   UNL     1      -3.074   5.280  -4.320  0.00  0.00    -0.248 NA
ATOM     21  C   UNL     1      -2.407   6.067  -5.163  0.00  0.00    +0.063 A 
ATOM     22  C   UNL     1      -2.079   7.338  -4.714  0.00  0.00    +0.015 A 
ATOM     23  C   UNL     1      -2.159   7.674  -3.370  0.00  0.00    -0.002 A 
BRANCH  18  25
ATOM     24  C   UNL     1      -1.647   7.668  -0.818  0.00  0.00    +0.005 C 
ATOM     25  C   UNL     1      -1.915   6.738  -1.090  0.00  0.00    +0.028 C 
ENDBRANCH  18  25
ENDBRANCH  17  21
ENDBRANCH  16  17
ENDBRANCH  15  16
ENDBRANCH   1  15
TORSDOF 7
ENDMDL
MODEL 9
REMARK VINA RESULT:      -7.2      4.082      8.548
REMARK  Name = 
REMARK  7 active torsions:
REMARK  status: ('A' for Active; 'I' for Inactive)
REMARK    1  A    between atoms: C_2  and  C_3
REMARK    2  A    between atoms: C_6  and  C_7
REMARK    3  A    between atoms: C_7  and  C_8
REMARK    4  A    between atoms: C_8  and  O_9
REMARK    5  A    between atoms: O_9  and  C_10
REMARK    6  A    between atoms: C_13  and  C_14
REMARK    7  A    between atoms: C_14  and  C_15
REMARK                            x       y       z     vdW  Elec       q    Type
REMARK                         _______ _______ _______ _____ _____    ______ ____
ROOT
ATOM      1  C   UNL     1       2.506   6.032  -8.991  0.00  0.00    +0.139 A 
ATOM      2  C   UNL     1       2.464   7.307  -8.466  0.00  0.00    +0.037 A 
ATOM      3  C   UNL     1       1.787   7.512  -7.296  0.00  0.00    -0.001 A 
ATOM      4  C   UNL     1       1.043   6.525  -6.661  0.00  0.00    -0.021 A 
ATOM      5  C   UNL     1       1.200   5.242  -7.140  0.00  0.00    -0.001 A 
ATOM      6  C   UNL     1       1.718   5.061  -8.408  0.00  0.00    +0.037 A 
ENDROOT
BRANCH   4   7
ATOM      7  C   UNL     1       0.589   6.844  -5.295  0.00  0.00    +0.047 C 
BRANCH   7   8
ATOM      8  C   UNL     1      -0.817   6.138  -5.049  0.00  0.00    +0.139 C 
ATOM      9  C   UNL     1      -1.432   7.329  -4.246  0.00  0.00    +0.259 C 
ATOM     10  O   UNL     1      -1.545   8.488  -4.734  0.00  0.00    -0.272 OA
ATOM     11  N   UNL     1      -2.357   6.784  -3.334  0.00  0.00    -0.135 NA
ATOM     12  C   UNL     1      -1.753   5.789  -2.500  0.00  0.00    +0.299 C 
ATOM     13  O   UNL     1      -2.476   4.920  -1.921  0.00  0.00    -0.261 OA
ATOM     14  S   UNL     1      -0.306   5.263  -3.432  0.00  0.00    -0.046 S 
ENDBRANCH   7   8
ENDBRANCH   4   7
BRANCH   1  15
ATOM     15  O   UNL     1       3.497   5.608  -9.879  0.00  0.00    -0.475 OA
BRANCH  15  16
ATOM     16  C   UNL     1       4.546   4.806  -9.341  0.00  0.00    +0.212 C 
BRANCH  16  17
ATOM     17  C   UNL     1       5.657   5.748  -8.980  0.00  0.00    +0.093 C 
BRANCH  17  21
ATOM     18  C   UNL     1       7.225   6.376 -12.746  0.00  0.00    -0.003 A 
ATOM     19  C   UNL     1       7.773   5.400 -11.960  0.00  0.00    +0.094 A 
ATOM     20  N   UNL     1       7.458   5.287 -10.647  0.00  0.00    -0.248 NA
ATOM     21  C   UNL     1       6.542   6.089 -10.104  0.00  0.00    +0.063 A 
ATOM     22  C   UNL     1       6.246   7.260 -10.785  0.00  0.00    +0.015 A 
ATOM     23  C   UNL     1       6.640   7.451 -12.102  0.00  0.00    -0.002 A 
BRANCH  18  25
ATOM     24  C   UNL     1       6.478   6.968 -14.629  0.00  0.00    +0.005 C 
ATOM     25  C   UNL     1       7.053   6.247 -14.227  0.00  0.00    +0.028 C 
ENDBRANCH  18  25
ENDBRANCH  17  21
ENDBRANCH  16  17
ENDBRANCH  15  16
ENDBRANCH   1  15
TORSDOF 7
ENDMDL
