MODEL 1
REMARK VINA RESULT:      -7.8      0.000      0.000
REMARK  Name = 
REMARK  1 active torsions:
REMARK  status: ('A' for Active; 'I' for Inactive)
REMARK    1  A    between atoms: C_11  and  C_12
REMARK                            x       y       z     vdW  Elec       q    Type
REMARK                         _______ _______ _______ _____ _____    ______ ____
ROOT
ATOM      1  O   UNL     1       1.010   6.162   0.509  0.00  0.00    -0.268 OA
ATOM      2  C   UNL     1       0.969   5.891  -0.704  0.00  0.00    +0.300 C 
ATOM      3  C   UNL     1       2.521   5.622  -1.136  0.00  0.00    +0.333 C 
ATOM      4  O   UNL     1       2.474   4.152  -0.685  0.00  0.00    -0.186 OA
ATOM      5  N   UNL     1       2.290   5.230  -2.667  0.00  0.00    -0.233 NA
ATOM      6  C   UNL     1       1.862   6.132  -3.522  0.00  0.00    +0.081 C 
ATOM      7  C   UNL     1       0.376   6.052  -3.546  0.00  0.00    +0.034 A 
ATOM      8  C   UNL     1      -0.474   5.400  -2.641  0.00  0.00    +0.075 A 
ATOM      9  C   UNL     1      -1.847   5.362  -2.858  0.00  0.00    +0.018 A 
ATOM     10  C   UNL     1      -2.279   6.007  -4.020  0.00  0.00    +0.013 A 
ATOM     11  C   UNL     1      -1.553   7.047  -4.588  0.00  0.00    +0.058 A 
ATOM     12 CL   UNL     1      -2.185   8.680  -4.801  0.00  0.00    -0.082 Cl
ATOM     13  C   UNL     1      -0.180   6.801  -4.582  0.00  0.00    +0.014 A 
ATOM     14  N   UNL     1      -0.083   5.144  -1.287  0.00  0.00    -0.175 NA
ENDROOT
BRANCH   6  15
ATOM     15  C   UNL     1       2.285   5.846  -4.909  0.00  0.00    +0.028 A 
ATOM     16  C   UNL     1       3.033   6.660  -5.688  0.00  0.00    +0.059 A 
ATOM     17 CL   UNL     1       4.317   7.497  -4.855  0.00  0.00    -0.082 Cl
ATOM     18  C   UNL     1       3.093   6.497  -7.065  0.00  0.00    +0.011 A 
ATOM     19  C   UNL     1       2.255   5.570  -7.668  0.00  0.00    +0.001 A 
ATOM     20  C   UNL     1       1.656   4.615  -6.879  0.00  0.00    +0.000 A 
ATOM     21  C   UNL     1       1.699   4.748  -5.527  0.00  0.00    +0.002 A 
ENDBRANCH   6  15
TORSDOF 1
ENDMDL
MODEL 2
REMARK VINA RESULT:      -7.7      2.295      3.101
REMARK  Name = 
REMARK  1 active torsions:
REMARK  status: ('A' for Active; 'I' for Inactive)
REMARK    1  A    between atoms: C_11  and  C_12
REMARK                            x       y       z     vdW  Elec       q    Type
REMARK                         _______ _______ _______ _____ _____    ______ ____
ROOT
ATOM      1  O   UNL     1       4.027   8.201  -2.521  0.00  0.00    -0.268 OA
ATOM      2  C   UNL     1       3.428   7.502  -3.357  0.00  0.00    +0.300 C 
ATOM      3  C   UNL     1       4.449   7.381  -4.626  0.00  0.00    +0.333 C 
ATOM      4  O   UNL     1       5.209   6.197  -4.003  0.00  0.00    -0.186 OA
ATOM      5  N   UNL     1       3.577   6.421  -5.558  0.00  0.00    -0.233 NA
ATOM      6  C   UNL     1       2.452   6.852  -6.082  0.00  0.00    +0.081 C 
ATOM      7  C   UNL     1       1.358   6.499  -5.135  0.00  0.00    +0.034 A 
ATOM      8  C   UNL     1       1.464   6.080  -3.801  0.00  0.00    +0.075 A 
ATOM      9  C   UNL     1       0.332   5.716  -3.081  0.00  0.00    +0.018 A 
ATOM     10  C   UNL     1      -0.870   5.799  -3.787  0.00  0.00    +0.013 A 
ATOM     11  C   UNL     1      -1.027   6.673  -4.857  0.00  0.00    +0.058 A 
ATOM     12 CL   UNL     1      -2.223   7.968  -4.895  0.00  0.00    -0.082 Cl
ATOM     13  C   UNL     1       0.094   6.701  -5.687  0.00  0.00    +0.014 A 
ATOM     14  N   UNL     1       2.597   6.414  -2.992  0.00  0.00    -0.175 NA
ENDROOT
BRANCH   6  15
ATOM     15  C   UNL     1       2.109   6.160  -7.341  0.00  0.00    +0.028 A 
ATOM     16  C   UNL     1       2.338   4.854  -7.610  0.00  0.00    +0.059 A 
ATOM     17 CL   UNL     1       2.075   3.772  -6.268  0.00  0.00    -0.082 Cl
ATOM     18  C   UNL     1       2.319   4.364  -8.908  0.00  0.00    +0.011 A 
ATOM     19  C   UNL     1       2.206   5.260  -9.962  0.00  0.00    +0.001 A 
ATOM     20  C   UNL     1       1.774   6.538  -9.695  0.00  0.00    +0.000 A 
ATOM     21  C   UNL     1       1.706   6.960  -8.404  0.00  0.00    +0.002 A 
ENDBRANCH   6  15
TORSDOF 1
ENDMDL
MODEL 3
REMARK VINA RESULT:      -7.3      3.083      4.436
REMARK  Name = 
REMARK  1 active torsions:
REMARK  status: ('A' for Active; 'I' for Inactive)
REMARK    1  A    between atoms: C_11  and  C_12
REMARK                            x       y       z     vdW  Elec       q    Type
REMARK                         _______ _______ _______ _____ _____    ______ ____
ROOT
ATOM      1  O   UNL     1       5.390   7.637  -4.202  0.00  0.00    -0.268 OA
ATOM      2  C   UNL     1       4.311   7.018  -4.206  0.00  0.00    +0.300 C 
ATOM      3  C   UNL     1       3.671   7.279  -5.686  0.00  0.00    +0.333 C 
ATOM      4  O   UNL     1       4.470   6.127  -6.321  0.00  0.00    -0.186 OA
ATOM      5  N   UNL     1       2.355   6.384  -5.550  0.00  0.00    -0.233 NA
ATOM      6  C   UNL     1       1.403   6.732  -4.714  0.00  0.00    +0.081 C 
ATOM      7  C   UNL     1       1.683   6.057  -3.417  0.00  0.00    +0.034 A 
ATOM      8  C   UNL     1       2.864   5.426  -3.002  0.00  0.00    +0.075 A 
ATOM      9  C   UNL     1       2.928   4.776  -1.776  0.00  0.00    +0.018 A 
ATOM     10  C   UNL     1       1.748   4.806  -1.029  0.00  0.00    +0.013 A 
ATOM     11  C   UNL     1       0.815   5.825  -1.183  0.00  0.00    +0.058 A 
ATOM     12 CL   UNL     1       0.332   6.915   0.116  0.00  0.00    -0.082 Cl
ATOM     13  C   UNL     1       0.620   6.166  -2.522  0.00  0.00    +0.014 A 
ATOM     14  N   UNL     1       4.140   5.773  -3.554  0.00  0.00    -0.175 NA
ENDROOT
BRANCH   6  15
ATOM     15  C   UNL     1       0.074   6.234  -5.128  0.00  0.00    +0.028 A 
ATOM     16  C   UNL     1      -0.154   5.278  -6.057  0.00  0.00    +0.059 A 
ATOM     17 CL   UNL     1       0.979   3.952  -6.040  0.00  0.00    -0.082 Cl
ATOM     18  C   UNL     1      -1.403   5.114  -6.641  0.00  0.00    +0.011 A 
ATOM     19  C   UNL     1      -2.397   6.044  -6.371  0.00  0.00    +0.001 A 
ATOM     20  C   UNL     1      -2.239   6.880  -5.290  0.00  0.00    +0.000 A 
ATOM     21  C   UNL     1      -1.029   6.945  -4.673  0.00  0.00    +0.002 A 
ENDBRANCH   6  15
TORSDOF 1
ENDMDL
MODEL 4
REMARK VINA RESULT:      -7.3      4.385      6.086
REMARK  Name = 
REMARK  1 active torsions:
REMARK  status: ('A' for Active; 'I' for Inactive)
REMARK    1  A    between atoms: C_11  and  C_12
REMARK                            x       y       z     vdW  Elec       q    Type
REMARK                         _______ _______ _______ _____ _____    ______ ____
ROOT
ATOM      1  O   UNL     1       0.402   7.252  -5.720  0.00  0.00    -0.268 OA
ATOM      2  C   UNL     1       1.061   6.800  -6.674  0.00  0.00    +0.300 C 
ATOM      3  C   UNL     1       2.623   7.069  -6.281  0.00  0.00    +0.333 C 
ATOM      4  O   UNL     1       2.718   5.777  -5.449  0.00  0.00    -0.186 OA
ATOM      5  N   UNL     1       3.320   6.386  -7.546  0.00  0.00    -0.233 NA
ATOM      6  C   UNL     1       3.185   6.917  -8.741  0.00  0.00    +0.081 C 
ATOM      7  C   UNL     1       1.998   6.283  -9.377  0.00  0.00    +0.034 A 
ATOM      8  C   UNL     1       0.997   5.509  -8.773  0.00  0.00    +0.075 A 
ATOM      9  C   UNL     1      -0.007   4.926  -9.537  0.00  0.00    +0.018 A 
ATOM     10  C   UNL     1       0.076   5.173 -10.909  0.00  0.00    +0.013 A 
ATOM     11  C   UNL     1       0.705   6.308 -11.408  0.00  0.00    +0.058 A 
ATOM     12 CL   UNL     1      -0.110   7.529 -12.385  0.00  0.00    -0.082 Cl
ATOM     13  C   UNL     1       1.889   6.598 -10.731  0.00  0.00    +0.014 A 
ATOM     14  N   UNL     1       0.684   5.632  -7.380  0.00  0.00    -0.175 NA
ENDROOT
BRANCH   6  15
ATOM     15  C   UNL     1       4.317   6.599  -9.635  0.00  0.00    +0.028 A 
ATOM     16  C   UNL     1       5.131   5.524  -9.523  0.00  0.00    +0.059 A 
ATOM     17 CL   UNL     1       4.334   4.046  -9.052  0.00  0.00    -0.082 Cl
ATOM     18  C   UNL     1       6.362   5.474 -10.162  0.00  0.00    +0.011 A 
ATOM     19  C   UNL     1       6.829   6.609 -10.811  0.00  0.00    +0.001 A 
ATOM     20  C   UNL     1       5.935   7.614 -11.099  0.00  0.00    +0.000 A 
ATOM     21  C   UNL     1       4.698   7.585 -10.537  0.00  0.00    +0.002 A 
ENDBRANCH   6  15
TORSDOF 1
ENDMDL
MODEL 5
REMARK VINA RESULT:      -7.2      2.732      5.404
REMARK  Name = 
REMARK  1 active torsions:
REMARK  status: ('A' for Active; 'I' for Inactive)
REMARK    1  A    between atoms: C_11  and  C_12
REMARK                            x       y       z     vdW  Elec       q    Type
REMARK                         _______ _______ _______ _____ _____    ______ ____
ROOT
ATOM      1  O   UNL     1       4.258   5.282  -6.689  0.00  0.00    -0.268 OA
ATOM      2  C   UNL     1       3.494   5.267  -5.708  0.00  0.00    +0.300 C 
ATOM      3  C   UNL     1       1.993   5.125  -6.336  0.00  0.00    +0.333 C 
ATOM      4  O   UNL     1       2.092   3.593  -6.432  0.00  0.00    -0.186 OA
ATOM      5  N   UNL     1       1.158   5.054  -4.975  0.00  0.00    -0.233 NA
ATOM      6  C   UNL     1       1.088   6.105  -4.188  0.00  0.00    +0.081 C 
ATOM      7  C   UNL     1       2.203   6.000  -3.208  0.00  0.00    +0.034 A 
ATOM      8  C   UNL     1       3.323   5.157  -3.251  0.00  0.00    +0.075 A 
ATOM      9  C   UNL     1       4.236   5.137  -2.204  0.00  0.00    +0.018 A 
ATOM     10  C   UNL     1       3.940   5.999  -1.145  0.00  0.00    +0.013 A 
ATOM     11  C   UNL     1       3.183   7.149  -1.333  0.00  0.00    +0.058 A 
ATOM     12 CL   UNL     1       3.778   8.777  -1.005  0.00  0.00    -0.082 Cl
ATOM     13  C   UNL     1       2.096   6.936  -2.180  0.00  0.00    +0.014 A 
ATOM     14  N   UNL     1       3.828   4.634  -4.486  0.00  0.00    -0.175 NA
ENDROOT
BRANCH   6  15
ATOM     15  C   UNL     1      -0.143   6.121  -3.371  0.00  0.00    +0.028 A 
ATOM     16  C   UNL     1      -1.150   7.018  -3.481  0.00  0.00    +0.059 A 
ATOM     17 CL   UNL     1      -1.536   7.490  -5.115  0.00  0.00    -0.082 Cl
ATOM     18  C   UNL     1      -2.087   7.187  -2.471  0.00  0.00    +0.011 A 
ATOM     19  C   UNL     1      -1.902   6.525  -1.266  0.00  0.00    +0.001 A 
ATOM     20  C   UNL     1      -1.014   5.475  -1.222  0.00  0.00    +0.000 A 
ATOM     21  C   UNL     1      -0.174   5.272  -2.271  0.00  0.00    +0.002 A 
ENDBRANCH   6  15
TORSDOF 1
ENDMDL
MODEL 6
REMARK VINA RESULT:      -7.1      6.581      9.031
REMARK  Name = 
REMARK  1 active torsions:
REMARK  status: ('A' for Active; 'I' for Inactive)
REMARK    1  A    between atoms: C_11  and  C_12
REMARK                            x       y       z     vdW  Elec       q    Type
REMARK                         _______ _______ _______ _____ _____    ______ ____
ROOT
ATOM      1  O   UNL     1       2.493   3.890  -7.964  0.00  0.00    -0.268 OA
ATOM      2  C   UNL     1       2.388   4.656  -8.939  0.00  0.00    +0.300 C 
ATOM      3  C   UNL     1       0.819   4.570  -9.385  0.00  0.00    +0.333 C 
ATOM      4  O   UNL     1       0.387   5.630  -8.356  0.00  0.00    -0.186 OA
ATOM      5  N   UNL     1       0.839   5.634 -10.576  0.00  0.00    -0.233 NA
ATOM      6  C   UNL     1       1.508   5.380 -11.678  0.00  0.00    +0.081 C 
ATOM      7  C   UNL     1       2.878   5.936 -11.503  0.00  0.00    +0.034 A 
ATOM      8  C   UNL     1       3.497   6.369 -10.322  0.00  0.00    +0.075 A 
ATOM      9  C   UNL     1       4.766   6.935 -10.352  0.00  0.00    +0.018 A 
ATOM     10  C   UNL     1       5.340   7.032 -11.622  0.00  0.00    +0.013 A 
ATOM     11  C   UNL     1       4.983   6.166 -12.650  0.00  0.00    +0.058 A 
ATOM     12 CL   UNL     1       6.118   5.085 -13.458  0.00  0.00    -0.082 Cl
ATOM     13  C   UNL     1       3.609   5.930 -12.690  0.00  0.00    +0.014 A 
ATOM     14  N   UNL     1       3.101   5.875  -9.037  0.00  0.00    -0.175 NA
ENDROOT
BRANCH   6  15
ATOM     15  C   UNL     1       0.955   6.084 -12.854  0.00  0.00    +0.028 A 
ATOM     16  C   UNL     1       0.926   5.602 -14.118  0.00  0.00    +0.059 A 
ATOM     17 CL   UNL     1       0.575   3.899 -14.246  0.00  0.00    -0.082 Cl
ATOM     18  C   UNL     1       0.723   6.436 -15.209  0.00  0.00    +0.011 A 
ATOM     19  C   UNL     1       0.693   7.809 -15.009  0.00  0.00    +0.001 A 
ATOM     20  C   UNL     1       0.517   8.282 -13.729  0.00  0.00    +0.000 A 
ATOM     21  C   UNL     1       0.622   7.422 -12.682  0.00  0.00    +0.002 A 
ENDBRANCH   6  15
TORSDOF 1
ENDMDL
MODEL 7
REMARK VINA RESULT:      -7.1      4.284      6.286
REMARK  Name = 
REMARK  1 active torsions:
REMARK  status: ('A' for Active; 'I' for Inactive)
REMARK    1  A    between atoms: C_11  and  C_12
REMARK                            x       y       z     vdW  Elec       q    Type
REMARK                         _______ _______ _______ _____ _____    ______ ____
ROOT
ATOM      1  O   UNL     1       4.091   7.144  -9.931  0.00  0.00    -0.268 OA
ATOM      2  C   UNL     1       3.468   6.757  -8.926  0.00  0.00    +0.300 C 
ATOM      3  C   UNL     1       1.889   6.908  -9.316  0.00  0.00    +0.333 C 
ATOM      4  O   UNL     1       1.850   5.537 -10.013  0.00  0.00    -0.186 OA
ATOM      5  N   UNL     1       1.244   6.322  -7.977  0.00  0.00    -0.233 NA
ATOM      6  C   UNL     1       1.367   6.976  -6.844  0.00  0.00    +0.081 C 
ATOM      7  C   UNL     1       2.593   6.468  -6.169  0.00  0.00    +0.034 A 
ATOM      8  C   UNL     1       3.624   5.688  -6.710  0.00  0.00    +0.075 A 
ATOM      9  C   UNL     1       4.666   5.236  -5.910  0.00  0.00    +0.018 A 
ATOM     10  C   UNL     1       4.587   5.614  -4.567  0.00  0.00    +0.013 A 
ATOM     11  C   UNL     1       3.908   6.760  -4.173  0.00  0.00    +0.058 A 
ATOM     12 CL   UNL     1       4.671   8.113  -3.337  0.00  0.00    -0.082 Cl
ATOM     13  C   UNL     1       2.702   6.922  -4.855  0.00  0.00    +0.014 A 
ATOM     14  N   UNL     1       3.913   5.686  -8.113  0.00  0.00    -0.175 NA
ENDROOT
BRANCH   6  15
ATOM     15  C   UNL     1       0.264   6.693  -5.903  0.00  0.00    +0.028 A 
ATOM     16  C   UNL     1      -0.370   5.506  -5.766  0.00  0.00    +0.059 A 
ATOM     17 CL   UNL     1       0.663   4.105  -5.882  0.00  0.00    -0.082 Cl
ATOM     18  C   UNL     1      -1.602   5.407  -5.135  0.00  0.00    +0.011 A 
ATOM     19  C   UNL     1      -2.263   6.570  -4.766  0.00  0.00    +0.001 A 
ATOM     20  C   UNL     1      -1.547   7.744  -4.715  0.00  0.00    +0.000 A 
ATOM     21  C   UNL     1      -0.300   7.785  -5.253  0.00  0.00    +0.002 A 
ENDBRANCH   6  15
TORSDOF 1
ENDMDL
MODEL 8
REMARK VINA RESULT:      -7.0      3.237      4.877
REMARK  Name = 
REMARK  1 active torsions:
REMARK  status: ('A' for Active; 'I' for Inactive)
REMARK    1  A    between atoms: C_11  and  C_12
REMARK                            x       y       z     vdW  Elec       q    Type
REMARK                         _______ _______ _______ _____ _____    ______ ____
ROOT
ATOM      1  O   UNL     1       2.405   3.907  -7.445  0.00  0.00    -0.268 OA
ATOM      2  C   UNL     1       2.405   4.728  -6.511  0.00  0.00    +0.300 C 
ATOM      3  C   UNL     1       3.933   4.719  -5.933  0.00  0.00    +0.333 C 
ATOM      4  O   UNL     1       4.419   5.735  -6.982  0.00  0.00    -0.186 OA
ATOM      5  N   UNL     1       3.782   5.847  -4.811  0.00  0.00    -0.233 NA
ATOM      6  C   UNL     1       3.029   5.632  -3.756  0.00  0.00    +0.081 C 
ATOM      7  C   UNL     1       1.664   6.131  -4.075  0.00  0.00    +0.034 A 
ATOM      8  C   UNL     1       1.135   6.477  -5.326  0.00  0.00    +0.075 A 
ATOM      9  C   UNL     1      -0.148   7.002  -5.434  0.00  0.00    +0.018 A 
ATOM     10  C   UNL     1      -0.829   7.149  -4.223  0.00  0.00    +0.013 A 
ATOM     11  C   UNL     1      -0.536   6.354  -3.121  0.00  0.00    +0.058 A 
ATOM     12 CL   UNL     1      -1.704   5.283  -2.349  0.00  0.00    -0.082 Cl
ATOM     13  C   UNL     1       0.836   6.167  -2.953  0.00  0.00    +0.014 A 
ATOM     14  N   UNL     1       1.652   5.927  -6.544  0.00  0.00    -0.175 NA
ENDROOT
BRANCH   6  15
ATOM     15  C   UNL     1       3.462   6.417  -2.581  0.00  0.00    +0.028 A 
ATOM     16  C   UNL     1       3.443   5.989  -1.297  0.00  0.00    +0.059 A 
ATOM     17 CL   UNL     1       3.896   4.320  -1.074  0.00  0.00    -0.082 Cl
ATOM     18  C   UNL     1       3.523   6.877  -0.233  0.00  0.00    +0.011 A 
ATOM     19  C   UNL     1       3.475   8.239  -0.491  0.00  0.00    +0.001 A 
ATOM     20  C   UNL     1       3.699   8.673  -1.777  0.00  0.00    +0.000 A 
ATOM     21  C   UNL     1       3.716   7.767  -2.790  0.00  0.00    +0.002 A 
ENDBRANCH   6  15
TORSDOF 1
ENDMDL
MODEL 9
REMARK VINA RESULT:      -6.9      2.599      4.838
REMARK  Name = 
REMARK  1 active torsions:
REMARK  status: ('A' for Active; 'I' for Inactive)
REMARK    1  A    between atoms: C_11  and  C_12
REMARK                            x       y       z     vdW  Elec       q    Type
REMARK                         _______ _______ _______ _____ _____    ______ ____
ROOT
ATOM      1  O   UNL     1       5.143   4.715  -4.476  0.00  0.00    -0.268 OA
ATOM      2  C   UNL     1       4.085   5.354  -4.613  0.00  0.00    +0.300 C 
ATOM      3  C   UNL     1       3.377   5.331  -3.141  0.00  0.00    +0.333 C 
ATOM      4  O   UNL     1       4.184   6.545  -2.648  0.00  0.00    -0.186 OA
ATOM      5  N   UNL     1       2.096   6.229  -3.466  0.00  0.00    -0.233 NA
ATOM      6  C   UNL     1       1.169   5.784  -4.285  0.00  0.00    +0.081 C 
ATOM      7  C   UNL     1       1.523   6.252  -5.653  0.00  0.00    +0.034 A 
ATOM      8  C   UNL     1       2.739   6.784  -6.102  0.00  0.00    +0.075 A 
ATOM      9  C   UNL     1       2.874   7.243  -7.407  0.00  0.00    +0.018 A 
ATOM     10  C   UNL     1       1.725   7.131  -8.194  0.00  0.00    +0.013 A 
ATOM     11  C   UNL     1       0.755   6.171  -7.934  0.00  0.00    +0.058 A 
ATOM     12 CL   UNL     1       0.292   4.911  -9.078  0.00  0.00    -0.082 Cl
ATOM     13  C   UNL     1       0.495   6.037  -6.570  0.00  0.00    +0.014 A 
ATOM     14  N   UNL     1       3.980   6.492  -5.448  0.00  0.00    -0.175 NA
ENDROOT
BRANCH   6  15
ATOM     15  C   UNL     1      -0.160   6.371  -4.009  0.00  0.00    +0.028 A 
ATOM     16  C   UNL     1      -1.135   5.797  -3.268  0.00  0.00    +0.059 A 
ATOM     17 CL   UNL     1      -0.576   4.944  -1.853  0.00  0.00    -0.082 Cl
ATOM     18  C   UNL     1      -2.453   6.227  -3.343  0.00  0.00    +0.011 A 
ATOM     19  C   UNL     1      -2.800   7.166  -4.303  0.00  0.00    +0.001 A 
ATOM     20  C   UNL     1      -1.797   7.890  -4.906  0.00  0.00    +0.000 A 
ATOM     21  C   UNL     1      -0.505   7.505  -4.734  0.00  0.00    +0.002 A 
ENDBRANCH   6  15
TORSDOF 1
ENDMDL
