MODEL 1
REMARK VINA RESULT:      -8.8      0.000      0.000
REMARK  Name = 
REMARK  0 active torsions:
REMARK  status: ('A' for Active; 'I' for Inactive)
REMARK                            x       y       z     vdW  Elec       q    Type
REMARK                         _______ _______ _______ _____ _____    ______ ____
ROOT
ATOM      1 CL   UNL     1       8.516   6.436 -11.630  0.00  0.00    -0.082 Cl
ATOM      2  C   UNL     1       6.880   5.864 -11.435  0.00  0.00    +0.057 A 
ATOM      3  C   UNL     1       6.107   5.396 -12.490  0.00  0.00    +0.007 A 
ATOM      4  C   UNL     1       4.725   5.272 -12.390  0.00  0.00    -0.021 A 
ATOM      5  C   UNL     1       4.139   5.488 -13.728  0.00  0.00    +0.031 C 
ATOM      6  C   UNL     1       2.703   5.070 -13.843  0.00  0.00    +0.033 C 
ATOM      7  C   UNL     1       1.791   5.962 -13.060  0.00  0.00    -0.004 A 
ATOM      8  C   UNL     1       1.706   5.995 -11.673  0.00  0.00    +0.077 A 
ATOM      9  C   UNL     1       2.815   5.677 -10.764  0.00  0.00    +0.009 C 
ATOM     10  C   UNL     1       2.491   5.758  -9.479  0.00  0.00    -0.040 C 
ATOM     11  C   UNL     1       2.072   4.518  -8.803  0.00  0.00    +0.041 C 
ATOM     12  C   UNL     1       1.857   4.839  -7.346  0.00  0.00    +0.093 C 
ATOM     13  N   UNL     1       1.041   6.036  -7.290  0.00  0.00    -0.217 NA
ATOM     14  C   UNL     1       1.888   7.199  -7.544  0.00  0.00    +0.093 C 
ATOM     15  C   UNL     1       2.658   7.067  -8.826  0.00  0.00    +0.041 C 
ATOM     16  N   UNL     1       0.734   6.727 -11.077  0.00  0.00    -0.244 NA
ATOM     17  C   UNL     1      -0.119   7.455 -11.837  0.00  0.00    +0.099 A 
ATOM     18  C   UNL     1       0.211   7.686 -13.166  0.00  0.00    +0.020 A 
ATOM     19  C   UNL     1       1.004   6.780 -13.862  0.00  0.00    -0.001 A 
ATOM     20  C   UNL     1       4.214   5.390 -11.103  0.00  0.00    -0.003 A 
ATOM     21  C   UNL     1       5.018   5.509  -9.997  0.00  0.00    +0.001 A 
ATOM     22  C   UNL     1       6.336   5.905 -10.164  0.00  0.00    +0.011 A 
ENDROOT
TORSDOF 0
ENDMDL
MODEL 2
REMARK VINA RESULT:      -8.7      5.083      8.928
REMARK  Name = 
REMARK  0 active torsions:
REMARK  status: ('A' for Active; 'I' for Inactive)
REMARK                            x       y       z     vdW  Elec       q    Type
REMARK                         _______ _______ _______ _____ _____    ______ ____
ROOT
ATOM      1 CL   UNL     1      -3.500   6.500  -2.839  0.00  0.00    -0.082 Cl
ATOM      2  C   UNL     1      -1.950   5.888  -3.355  0.00  0.00    +0.057 A 
ATOM      3  C   UNL     1      -0.977   5.437  -2.472  0.00  0.00    +0.007 A 
ATOM      4  C   UNL     1       0.350   5.282  -2.857  0.00  0.00    -0.021 A 
ATOM      5  C   UNL     1       1.209   5.528  -1.682  0.00  0.00    +0.031 C 
ATOM      6  C   UNL     1       2.631   5.084  -1.859  0.00  0.00    +0.033 C 
ATOM      7  C   UNL     1       3.368   5.932  -2.849  0.00  0.00    -0.004 A 
ATOM      8  C   UNL     1       3.157   5.919  -4.222  0.00  0.00    +0.077 A 
ATOM      9  C   UNL     1       1.877   5.596  -4.864  0.00  0.00    +0.009 C 
ATOM     10  C   UNL     1       1.922   5.629  -6.190  0.00  0.00    -0.040 C 
ATOM     11  C   UNL     1       2.171   4.360  -6.896  0.00  0.00    +0.041 C 
ATOM     12  C   UNL     1       2.076   4.631  -8.376  0.00  0.00    +0.093 C 
ATOM     13  N   UNL     1       2.878   5.808  -8.645  0.00  0.00    -0.217 NA
ATOM     14  C   UNL     1       2.120   6.996  -8.260  0.00  0.00    +0.093 C 
ATOM     15  C   UNL     1       1.638   6.921  -6.839  0.00  0.00    +0.041 C 
ATOM     16  N   UNL     1       3.991   6.611  -5.036  0.00  0.00    -0.244 NA
ATOM     17  C   UNL     1       4.996   7.345  -4.500  0.00  0.00    +0.099 A 
ATOM     18  C   UNL     1       4.959   7.625  -3.139  0.00  0.00    +0.020 A 
ATOM     19  C   UNL     1       4.319   6.758  -2.260  0.00  0.00    -0.001 A 
ATOM     20  C   UNL     1       0.578   5.349  -4.227  0.00  0.00    -0.003 A 
ATOM     21  C   UNL     1      -0.440   5.449  -5.141  0.00  0.00    +0.001 A 
ATOM     22  C   UNL     1      -1.688   5.878  -4.713  0.00  0.00    +0.011 A 
ENDROOT
TORSDOF 0
ENDMDL
MODEL 3
REMARK VINA RESULT:      -8.5      2.811      4.847
REMARK  Name = 
REMARK  0 active torsions:
REMARK  status: ('A' for Active; 'I' for Inactive)
REMARK                            x       y       z     vdW  Elec       q    Type
REMARK                         _______ _______ _______ _____ _____    ______ ____
ROOT
ATOM      1 CL   UNL     1       2.104   4.630  -5.428  0.00  0.00    -0.082 Cl
ATOM      2  C   UNL     1       2.433   5.496  -6.906  0.00  0.00    +0.057 A 
ATOM      3  C   UNL     1       1.435   6.005  -7.727  0.00  0.00    +0.007 A 
ATOM      4  C   UNL     1       1.686   6.378  -9.044  0.00  0.00    -0.021 A 
ATOM      5  C   UNL     1       0.457   6.161  -9.833  0.00  0.00    +0.031 C 
ATOM      6  C   UNL     1       0.473   6.815 -11.183  0.00  0.00    +0.033 C 
ATOM      7  C   UNL     1       1.447   6.164 -12.114  0.00  0.00    -0.004 A 
ATOM      8  C   UNL     1       2.830   6.260 -12.014  0.00  0.00    +0.077 A 
ATOM      9  C   UNL     1       3.562   6.450 -10.755  0.00  0.00    +0.009 C 
ATOM     10  C   UNL     1       4.878   6.532 -10.912  0.00  0.00    -0.040 C 
ATOM     11  C   UNL     1       5.467   7.878 -11.025  0.00  0.00    +0.041 C 
ATOM     12  C   UNL     1       6.965   7.719 -11.090  0.00  0.00    +0.093 C 
ATOM     13  N   UNL     1       7.241   6.694 -12.076  0.00  0.00    -0.217 NA
ATOM     14  C   UNL     1       7.010   5.383 -11.475  0.00  0.00    +0.093 C 
ATOM     15  C   UNL     1       5.638   5.272 -10.875  0.00  0.00    +0.041 C 
ATOM     16  N   UNL     1       3.610   5.762 -13.004  0.00  0.00    -0.244 NA
ATOM     17  C   UNL     1       3.038   5.136 -14.060  0.00  0.00    +0.099 A 
ATOM     18  C   UNL     1       1.709   4.743 -13.956  0.00  0.00    +0.020 A 
ATOM     19  C   UNL     1       0.834   5.435 -13.126  0.00  0.00    -0.001 A 
ATOM     20  C   UNL     1       3.030   6.457  -9.388  0.00  0.00    -0.003 A 
ATOM     21  C   UNL     1       4.038   6.289  -8.472  0.00  0.00    +0.001 A 
ATOM     22  C   UNL     1       3.757   5.654  -7.272  0.00  0.00    +0.011 A 
ENDROOT
TORSDOF 0
ENDMDL
MODEL 4
REMARK VINA RESULT:      -8.4      3.228      5.678
REMARK  Name = 
REMARK  0 active torsions:
REMARK  status: ('A' for Active; 'I' for Inactive)
REMARK                            x       y       z     vdW  Elec       q    Type
REMARK                         _______ _______ _______ _____ _____    ______ ____
ROOT
ATOM      1 CL   UNL     1       3.477   6.517 -11.713  0.00  0.00    -0.082 Cl
ATOM      2  C   UNL     1       3.028   5.915 -10.139  0.00  0.00    +0.057 A 
ATOM      3  C   UNL     1       1.787   5.354  -9.864  0.00  0.00    +0.007 A 
ATOM      4  C   UNL     1       1.322   5.199  -8.563  0.00  0.00    -0.021 A 
ATOM      5  C   UNL     1      -0.151   5.305  -8.577  0.00  0.00    +0.031 C 
ATOM      6  C   UNL     1      -0.811   4.840  -7.313  0.00  0.00    +0.033 C 
ATOM      7  C   UNL     1      -0.538   5.759  -6.163  0.00  0.00    -0.004 A 
ATOM      8  C   UNL     1       0.687   5.885  -5.517  0.00  0.00    +0.077 A 
ATOM      9  C   UNL     1       1.990   5.662  -6.156  0.00  0.00    +0.009 C 
ATOM     10  C   UNL     1       3.020   5.823  -5.333  0.00  0.00    -0.040 C 
ATOM     11  C   UNL     1       3.556   4.621  -4.671  0.00  0.00    +0.041 C 
ATOM     12  C   UNL     1       4.770   5.036  -3.879  0.00  0.00    +0.093 C 
ATOM     13  N   UNL     1       4.398   6.211  -3.115  0.00  0.00    -0.217 NA
ATOM     14  C   UNL     1       4.427   7.377  -3.995  0.00  0.00    +0.093 C 
ATOM     15  C   UNL     1       3.585   7.178  -5.223  0.00  0.00    +0.041 C 
ATOM     16  N   UNL     1       0.776   6.629  -4.388  0.00  0.00    -0.244 NA
ATOM     17  C   UNL     1      -0.317   7.279  -3.924  0.00  0.00    +0.099 A 
ATOM     18  C   UNL     1      -1.409   7.427  -4.770  0.00  0.00    +0.020 A 
ATOM     19  C   UNL     1      -1.650   6.497  -5.776  0.00  0.00    -0.001 A 
ATOM     20  C   UNL     1       2.275   5.391  -7.570  0.00  0.00    -0.003 A 
ATOM     21  C   UNL     1       3.601   5.609  -7.850  0.00  0.00    +0.001 A 
ATOM     22  C   UNL     1       3.958   6.029  -9.122  0.00  0.00    +0.011 A 
ENDROOT
TORSDOF 0
ENDMDL
MODEL 5
REMARK VINA RESULT:      -8.2      6.144      9.158
REMARK  Name = 
REMARK  0 active torsions:
REMARK  status: ('A' for Active; 'I' for Inactive)
REMARK                            x       y       z     vdW  Elec       q    Type
REMARK                         _______ _______ _______ _____ _____    ______ ____
ROOT
ATOM      1 CL   UNL     1       2.102   7.783  -8.045  0.00  0.00    -0.082 Cl
ATOM      2  C   UNL     1       1.855   6.958  -6.528  0.00  0.00    +0.057 A 
ATOM      3  C   UNL     1       0.646   6.375  -6.167  0.00  0.00    +0.007 A 
ATOM      4  C   UNL     1       0.359   6.034  -4.850  0.00  0.00    -0.021 A 
ATOM      5  C   UNL     1      -1.097   6.156  -4.642  0.00  0.00    +0.031 C 
ATOM      6  C   UNL     1      -1.592   5.515  -3.380  0.00  0.00    +0.033 C 
ATOM      7  C   UNL     1      -1.136   6.250  -2.158  0.00  0.00    -0.004 A 
ATOM      8  C   UNL     1       0.168   6.267  -1.679  0.00  0.00    +0.077 A 
ATOM      9  C   UNL     1       1.365   6.127  -2.519  0.00  0.00    +0.009 C 
ATOM     10  C   UNL     1       2.502   6.154  -1.834  0.00  0.00    -0.040 C 
ATOM     11  C   UNL     1       3.086   4.862  -1.435  0.00  0.00    +0.041 C 
ATOM     12  C   UNL     1       4.409   5.142  -0.768  0.00  0.00    +0.093 C 
ATOM     13  N   UNL     1       4.182   6.194   0.202  0.00  0.00    -0.217 NA
ATOM     14  C   UNL     1       4.126   7.477  -0.493  0.00  0.00    +0.093 C 
ATOM     15  C   UNL     1       3.118   7.472  -1.607  0.00  0.00    +0.041 C 
ATOM     16  N   UNL     1       0.435   6.834  -0.477  0.00  0.00    -0.244 NA
ATOM     17  C   UNL     1      -0.565   7.419   0.226  0.00  0.00    +0.099 A 
ATOM     18  C   UNL     1      -1.757   7.702  -0.429  0.00  0.00    +0.020 A 
ATOM     19  C   UNL     1      -2.162   6.934  -1.516  0.00  0.00    -0.001 A 
ATOM     20  C   UNL     1       1.445   6.067  -3.983  0.00  0.00    -0.003 A 
ATOM     21  C   UNL     1       2.726   6.310  -4.411  0.00  0.00    +0.001 A 
ATOM     22  C   UNL     1       2.918   6.911  -5.646  0.00  0.00    +0.011 A 
ENDROOT
TORSDOF 0
ENDMDL
MODEL 6
REMARK VINA RESULT:      -8.2      4.282      7.586
REMARK  Name = 
REMARK  0 active torsions:
REMARK  status: ('A' for Active; 'I' for Inactive)
REMARK                            x       y       z     vdW  Elec       q    Type
REMARK                         _______ _______ _______ _____ _____    ______ ____
ROOT
ATOM      1 CL   UNL     1       3.265   5.047  -9.946  0.00  0.00    -0.082 Cl
ATOM      2  C   UNL     1       2.695   5.877  -8.521  0.00  0.00    +0.057 A 
ATOM      3  C   UNL     1       3.544   6.470  -7.595  0.00  0.00    +0.007 A 
ATOM      4  C   UNL     1       3.113   6.816  -6.319  0.00  0.00    -0.021 A 
ATOM      5  C   UNL     1       4.258   6.705  -5.393  0.00  0.00    +0.031 C 
ATOM      6  C   UNL     1       4.032   7.352  -4.059  0.00  0.00    +0.033 C 
ATOM      7  C   UNL     1       3.018   6.616  -3.240  0.00  0.00    -0.004 A 
ATOM      8  C   UNL     1       1.652   6.591  -3.497  0.00  0.00    +0.077 A 
ATOM      9  C   UNL     1       1.055   6.719  -4.833  0.00  0.00    +0.009 C 
ATOM     10  C   UNL     1      -0.272   6.685  -4.828  0.00  0.00    -0.040 C 
ATOM     11  C   UNL     1      -0.986   7.974  -4.792  0.00  0.00    +0.041 C 
ATOM     12  C   UNL     1      -2.461   7.685  -4.897  0.00  0.00    +0.093 C 
ATOM     13  N   UNL     1      -2.758   6.636  -3.941  0.00  0.00    -0.217 NA
ATOM     14  C   UNL     1      -2.347   5.352  -4.502  0.00  0.00    +0.093 C 
ATOM     15  C   UNL     1      -0.910   5.363  -4.942  0.00  0.00    +0.041 C 
ATOM     16  N   UNL     1       0.810   6.024  -2.599  0.00  0.00    -0.244 NA
ATOM     17  C   UNL     1       1.311   5.448  -1.480  0.00  0.00    +0.099 A 
ATOM     18  C   UNL     1       2.672   5.173  -1.429  0.00  0.00    +0.020 A 
ATOM     19  C   UNL     1       3.573   5.942  -2.159  0.00  0.00    -0.001 A 
ATOM     20  C   UNL     1       1.737   6.776  -6.131  0.00  0.00    -0.003 A 
ATOM     21  C   UNL     1       0.858   6.522  -7.154  0.00  0.00    +0.001 A 
ATOM     22  C   UNL     1       1.330   5.918  -8.309  0.00  0.00    +0.011 A 
ENDROOT
TORSDOF 0
ENDMDL
MODEL 7
REMARK VINA RESULT:      -8.1      4.927      7.131
REMARK  Name = 
REMARK  0 active torsions:
REMARK  status: ('A' for Active; 'I' for Inactive)
REMARK                            x       y       z     vdW  Elec       q    Type
REMARK                         _______ _______ _______ _____ _____    ______ ____
ROOT
ATOM      1 CL   UNL     1       4.839   5.519  -8.225  0.00  0.00    -0.082 Cl
ATOM      2  C   UNL     1       3.574   5.167  -7.077  0.00  0.00    +0.057 A 
ATOM      3  C   UNL     1       2.271   4.865  -7.450  0.00  0.00    +0.007 A 
ATOM      4  C   UNL     1       1.214   4.927  -6.547  0.00  0.00    -0.021 A 
ATOM      5  C   UNL     1      -0.011   5.289  -7.286  0.00  0.00    +0.031 C 
ATOM      6  C   UNL     1      -1.279   5.078  -6.512  0.00  0.00    +0.033 C 
ATOM      7  C   UNL     1      -1.415   6.046  -5.378  0.00  0.00    -0.004 A 
ATOM      8  C   UNL     1      -0.658   6.019  -4.213  0.00  0.00    +0.077 A 
ATOM      9  C   UNL     1       0.715   5.506  -4.124  0.00  0.00    +0.009 C 
ATOM     10  C   UNL     1       1.228   5.565  -2.901  0.00  0.00    -0.040 C 
ATOM     11  C   UNL     1       1.120   4.361  -2.059  0.00  0.00    +0.041 C 
ATOM     12  C   UNL     1       1.855   4.634  -0.771  0.00  0.00    +0.093 C 
ATOM     13  N   UNL     1       1.409   5.927  -0.292  0.00  0.00    -0.217 NA
ATOM     14  C   UNL     1       2.095   6.974  -1.044  0.00  0.00    +0.093 C 
ATOM     15  C   UNL     1       1.931   6.804  -2.527  0.00  0.00    +0.041 C 
ATOM     16  N   UNL     1      -0.976   6.846  -3.187  0.00  0.00    -0.244 NA
ATOM     17  C   UNL     1      -2.000   7.722  -3.323  0.00  0.00    +0.099 A 
ATOM     18  C   UNL     1      -2.491   7.974  -4.599  0.00  0.00    +0.020 A 
ATOM     19  C   UNL     1      -2.399   7.004  -5.592  0.00  0.00    -0.001 A 
ATOM     20  C   UNL     1       1.585   5.048  -5.213  0.00  0.00    -0.003 A 
ATOM     21  C   UNL     1       2.894   4.999  -4.803  0.00  0.00    +0.001 A 
ATOM     22  C   UNL     1       3.898   5.218  -5.733  0.00  0.00    +0.011 A 
ENDROOT
TORSDOF 0
ENDMDL
MODEL 8
REMARK VINA RESULT:      -8.0      4.276      7.257
REMARK  Name = 
REMARK  0 active torsions:
REMARK  status: ('A' for Active; 'I' for Inactive)
REMARK                            x       y       z     vdW  Elec       q    Type
REMARK                         _______ _______ _______ _____ _____    ______ ____
ROOT
ATOM      1 CL   UNL     1       4.310   4.237  -1.060  0.00  0.00    -0.082 Cl
ATOM      2  C   UNL     1       3.630   5.098  -2.415  0.00  0.00    +0.057 A 
ATOM      3  C   UNL     1       2.536   5.947  -2.306  0.00  0.00    +0.007 A 
ATOM      4  C   UNL     1       1.802   6.347  -3.418  0.00  0.00    -0.021 A 
ATOM      5  C   UNL     1       0.403   6.567  -3.000  0.00  0.00    +0.031 C 
ATOM      6  C   UNL     1      -0.428   7.307  -4.006  0.00  0.00    +0.033 C 
ATOM      7  C   UNL     1      -0.694   6.487  -5.230  0.00  0.00    -0.004 A 
ATOM      8  C   UNL     1       0.253   6.168  -6.196  0.00  0.00    +0.077 A 
ATOM      9  C   UNL     1       1.691   6.024  -5.935  0.00  0.00    +0.009 C 
ATOM     10  C   UNL     1       2.402   5.734  -7.019  0.00  0.00    -0.040 C 
ATOM     11  C   UNL     1       3.024   6.855  -7.745  0.00  0.00    +0.041 C 
ATOM     12  C   UNL     1       3.852   6.274  -8.862  0.00  0.00    +0.093 C 
ATOM     13  N   UNL     1       3.021   5.305  -9.549  0.00  0.00    -0.217 NA
ATOM     14  C   UNL     1       2.992   4.069  -8.770  0.00  0.00    +0.093 C 
ATOM     15  C   UNL     1       2.571   4.309  -7.348  0.00  0.00    +0.041 C 
ATOM     16  N   UNL     1      -0.136   5.555  -7.340  0.00  0.00    -0.244 NA
ATOM     17  C   UNL     1      -1.437   5.220  -7.513  0.00  0.00    +0.099 A 
ATOM     18  C   UNL     1      -2.275   5.222  -6.405  0.00  0.00    +0.020 A 
ATOM     19  C   UNL     1      -2.014   6.061  -5.327  0.00  0.00    -0.001 A 
ATOM     20  C   UNL     1       2.389   6.063  -4.645  0.00  0.00    -0.003 A 
ATOM     21  C   UNL     1       3.648   5.528  -4.756  0.00  0.00    +0.001 A 
ATOM     22  C   UNL     1       4.209   4.897  -3.655  0.00  0.00    +0.011 A 
ENDROOT
TORSDOF 0
ENDMDL
MODEL 9
REMARK VINA RESULT:      -7.9      3.799      6.968
REMARK  Name = 
REMARK  0 active torsions:
REMARK  status: ('A' for Active; 'I' for Inactive)
REMARK                            x       y       z     vdW  Elec       q    Type
REMARK                         _______ _______ _______ _____ _____    ______ ____
ROOT
ATOM      1 CL   UNL     1      -2.726   6.977  -4.183  0.00  0.00    -0.082 Cl
ATOM      2  C   UNL     1      -1.696   6.099  -5.284  0.00  0.00    +0.057 A 
ATOM      3  C   UNL     1      -0.601   5.351  -4.869  0.00  0.00    +0.007 A 
ATOM      4  C   UNL     1       0.393   4.951  -5.755  0.00  0.00    -0.021 A 
ATOM      5  C   UNL     1       1.670   4.871  -5.019  0.00  0.00    +0.031 C 
ATOM      6  C   UNL     1       2.758   4.146  -5.756  0.00  0.00    +0.033 C 
ATOM      7  C   UNL     1       3.241   4.915  -6.947  0.00  0.00    -0.004 A 
ATOM      8  C   UNL     1       2.522   5.100  -8.121  0.00  0.00    +0.077 A 
ATOM      9  C   UNL     1       1.056   5.139  -8.201  0.00  0.00    +0.009 C 
ATOM     10  C   UNL     1       0.595   5.308  -9.434  0.00  0.00    -0.040 C 
ATOM     11  C   UNL     1       0.233   4.101 -10.197  0.00  0.00    +0.041 C 
ATOM     12  C   UNL     1      -0.355   4.547 -11.512  0.00  0.00    +0.093 C 
ATOM     13  N   UNL     1       0.544   5.541 -12.064  0.00  0.00    -0.217 NA
ATOM     14  C   UNL     1       0.310   6.817 -11.392  0.00  0.00    +0.093 C 
ATOM     15  C   UNL     1       0.409   6.694  -9.898  0.00  0.00    +0.041 C 
ATOM     16  N   UNL     1       3.121   5.677  -9.191  0.00  0.00    -0.244 NA
ATOM     17  C   UNL     1       4.401   6.108  -9.092  0.00  0.00    +0.099 A 
ATOM     18  C   UNL     1       4.960   6.238  -7.827  0.00  0.00    +0.020 A 
ATOM     19  C   UNL     1       4.516   5.442  -6.776  0.00  0.00    -0.001 A 
ATOM     20  C   UNL     1       0.085   5.116  -7.101  0.00  0.00    -0.003 A 
ATOM     21  C   UNL     1      -1.148   5.538  -7.530  0.00  0.00    +0.001 A 
ATOM     22  C   UNL     1      -1.987   6.181  -6.633  0.00  0.00    +0.011 A 
ENDROOT
TORSDOF 0
ENDMDL
