MODEL 1
REMARK VINA RESULT:      -6.6      0.000      0.000
REMARK  Name = 
REMARK  5 active torsions:
REMARK  status: ('A' for Active; 'I' for Inactive)
REMARK    1  A    between atoms: N_8  and  C_9
REMARK    2  A    between atoms: C_9  and  C_10
REMARK    3  A    between atoms: C_10  and  C_11
REMARK    4  A    between atoms: C_11  and  C_12
REMARK    5  A    between atoms: C_11  and  C_14
REMARK                            x       y       z     vdW  Elec       q    Type
REMARK                         _______ _______ _______ _____ _____    ______ ____
ROOT
ATOM      1  N   UNL     1       3.961   5.941  -4.394  0.00  0.00    -0.086 NA
ATOM      2  C   UNL     1       3.934   6.327  -5.771  0.00  0.00    +0.261 A 
ATOM      3  N   UNL     1       3.142   7.331  -6.219  0.00  0.00    -0.171 NA
ATOM      4  C   UNL     1       2.630   7.298  -7.473  0.00  0.00    +0.302 A 
ATOM      5  O   UNL     1       2.111   8.339  -7.977  0.00  0.00    -0.263 OA
ATOM      6  C   UNL     1       3.257   6.425  -8.350  0.00  0.00    +0.175 A 
ATOM      7  N   UNL     1       2.967   6.012  -9.600  0.00  0.00    -0.217 NA
ATOM      8  C   UNL     1       4.019   5.295 -10.060  0.00  0.00    +0.180 A 
ATOM      9  N   UNL     1       4.976   5.213  -9.115  0.00  0.00    -0.294 N 
ATOM     10  C   UNL     1       4.382   5.695  -7.994  0.00  0.00    +0.171 A 
ATOM     11  N   UNL     1       4.715   5.711  -6.692  0.00  0.00    -0.192 NA
ENDROOT
BRANCH   9  12
ATOM     12  C   UNL     1       6.421   5.095  -9.285  0.00  0.00    +0.109 C 
BRANCH  12  13
ATOM     13  C   UNL     1       7.018   6.353  -9.893  0.00  0.00    +0.030 C 
BRANCH  13  14
ATOM     14  C   UNL     1       6.946   6.263 -11.390  0.00  0.00    +0.068 C 
BRANCH  14  15
ATOM     15  C   UNL     1       8.252   5.807 -12.006  0.00  0.00    +0.185 C 
ATOM     16  O   UNL     1       7.952   4.628 -12.708  0.00  0.00    -0.220 OA
ENDBRANCH  14  15
BRANCH  14  17
ATOM     17  C   UNL     1       6.374   7.479 -12.051  0.00  0.00    +0.185 C 
ATOM     18  O   UNL     1       6.547   8.648 -11.328  0.00  0.00    -0.220 OA
ENDBRANCH  14  17
ENDBRANCH  13  14
ENDBRANCH  12  13
ENDBRANCH   9  12
TORSDOF 5
ENDMDL
MODEL 2
REMARK VINA RESULT:      -6.5      2.470      5.935
REMARK  Name = 
REMARK  5 active torsions:
REMARK  status: ('A' for Active; 'I' for Inactive)
REMARK    1  A    between atoms: N_8  and  C_9
REMARK    2  A    between atoms: C_9  and  C_10
REMARK    3  A    between atoms: C_10  and  C_11
REMARK    4  A    between atoms: C_11  and  C_12
REMARK    5  A    between atoms: C_11  and  C_14
REMARK                            x       y       z     vdW  Elec       q    Type
REMARK                         _______ _______ _______ _____ _____    ______ ____
ROOT
ATOM      1  N   UNL     1       9.129   5.738 -12.020  0.00  0.00    -0.086 NA
ATOM      2  C   UNL     1       7.742   5.436 -11.847  0.00  0.00    +0.261 A 
ATOM      3  N   UNL     1       6.996   4.894 -12.840  0.00  0.00    -0.171 NA
ATOM      4  C   UNL     1       5.675   5.178 -12.945  0.00  0.00    +0.302 A 
ATOM      5  O   UNL     1       4.932   4.485 -13.701  0.00  0.00    -0.263 OA
ATOM      6  C   UNL     1       5.087   5.705 -11.804  0.00  0.00    +0.175 A 
ATOM      7  N   UNL     1       3.872   6.232 -11.556  0.00  0.00    -0.217 NA
ATOM      8  C   UNL     1       3.760   6.422 -10.221  0.00  0.00    +0.180 A 
ATOM      9  N   UNL     1       4.899   6.052  -9.601  0.00  0.00    -0.294 N 
ATOM     10  C   UNL     1       5.781   5.856 -10.612  0.00  0.00    +0.171 A 
ATOM     11  N   UNL     1       7.111   5.665 -10.669  0.00  0.00    -0.192 NA
ENDROOT
BRANCH   9  12
ATOM     12  C   UNL     1       5.074   5.525  -8.251  0.00  0.00    +0.109 C 
BRANCH  12  13
ATOM     13  C   UNL     1       3.749   5.413  -7.517  0.00  0.00    +0.030 C 
BRANCH  13  14
ATOM     14  C   UNL     1       3.522   6.659  -6.710  0.00  0.00    +0.068 C 
BRANCH  14  15
ATOM     15  C   UNL     1       3.921   6.490  -5.259  0.00  0.00    +0.185 C 
ATOM     16  O   UNL     1       4.400   7.744  -4.847  0.00  0.00    -0.220 OA
ENDBRANCH  14  15
BRANCH  14  17
ATOM     17  C   UNL     1       2.161   7.261  -6.881  0.00  0.00    +0.185 C 
ATOM     18  O   UNL     1       2.115   8.302  -7.794  0.00  0.00    -0.220 OA
ENDBRANCH  14  17
ENDBRANCH  13  14
ENDBRANCH  12  13
ENDBRANCH   9  12
TORSDOF 5
ENDMDL
MODEL 3
REMARK VINA RESULT:      -6.2      2.453      3.043
REMARK  Name = 
REMARK  5 active torsions:
REMARK  status: ('A' for Active; 'I' for Inactive)
REMARK    1  A    between atoms: N_8  and  C_9
REMARK    2  A    between atoms: C_9  and  C_10
REMARK    3  A    between atoms: C_10  and  C_11
REMARK    4  A    between atoms: C_11  and  C_12
REMARK    5  A    between atoms: C_11  and  C_14
REMARK                            x       y       z     vdW  Elec       q    Type
REMARK                         _______ _______ _______ _____ _____    ______ ____
ROOT
ATOM      1  N   UNL     1       2.404   4.100  -7.324  0.00  0.00    -0.086 NA
ATOM      2  C   UNL     1       2.263   4.883  -8.513  0.00  0.00    +0.261 A 
ATOM      3  N   UNL     1       1.048   5.195  -9.027  0.00  0.00    -0.171 NA
ATOM      4  C   UNL     1       0.881   5.342 -10.363  0.00  0.00    +0.302 A 
ATOM      5  O   UNL     1      -0.173   5.878 -10.819  0.00  0.00    -0.263 OA
ATOM      6  C   UNL     1       2.046   5.539 -11.091  0.00  0.00    +0.175 A 
ATOM      7  N   UNL     1       2.308   5.584 -12.412  0.00  0.00    -0.217 NA
ATOM      8  C   UNL     1       3.589   5.991 -12.573  0.00  0.00    +0.180 A 
ATOM      9  N   UNL     1       4.171   6.183 -11.373  0.00  0.00    -0.294 N 
ATOM     10  C   UNL     1       3.289   5.658 -10.486  0.00  0.00    +0.171 A 
ATOM     11  N   UNL     1       3.344   5.364  -9.175  0.00  0.00    -0.192 NA
ENDROOT
BRANCH   9  12
ATOM     12  C   UNL     1       5.234   7.116 -11.011  0.00  0.00    +0.109 C 
BRANCH  12  13
ATOM     13  C   UNL     1       6.393   7.052 -11.992  0.00  0.00    +0.030 C 
BRANCH  13  14
ATOM     14  C   UNL     1       7.627   6.591 -11.272  0.00  0.00    +0.068 C 
BRANCH  14  15
ATOM     15  C   UNL     1       8.392   5.539 -12.047  0.00  0.00    +0.185 C 
ATOM     16  O   UNL     1       7.418   4.738 -12.664  0.00  0.00    -0.220 OA
ENDBRANCH  14  15
BRANCH  14  17
ATOM     17  C   UNL     1       7.398   6.218  -9.839  0.00  0.00    +0.185 C 
ATOM     18  O   UNL     1       8.006   5.033  -9.460  0.00  0.00    -0.220 OA
ENDBRANCH  14  17
ENDBRANCH  13  14
ENDBRANCH  12  13
ENDBRANCH   9  12
TORSDOF 5
ENDMDL
MODEL 4
REMARK VINA RESULT:      -6.2      4.467      8.258
REMARK  Name = 
REMARK  5 active torsions:
REMARK  status: ('A' for Active; 'I' for Inactive)
REMARK    1  A    between atoms: N_8  and  C_9
REMARK    2  A    between atoms: C_9  and  C_10
REMARK    3  A    between atoms: C_10  and  C_11
REMARK    4  A    between atoms: C_11  and  C_12
REMARK    5  A    between atoms: C_11  and  C_14
REMARK                            x       y       z     vdW  Elec       q    Type
REMARK                         _______ _______ _______ _____ _____    ______ ____
ROOT
ATOM      1  N   UNL     1       0.354   5.159 -11.500  0.00  0.00    -0.086 NA
ATOM      2  C   UNL     1       1.044   5.233 -10.249  0.00  0.00    +0.261 A 
ATOM      3  N   UNL     1       2.393   5.141 -10.166  0.00  0.00    -0.171 NA
ATOM      4  C   UNL     1       2.981   4.592  -9.076  0.00  0.00    +0.302 A 
ATOM      5  O   UNL     1       4.226   4.736  -8.882  0.00  0.00    -0.263 OA
ATOM      6  C   UNL     1       2.180   4.504  -7.947  0.00  0.00    +0.175 A 
ATOM      7  N   UNL     1       2.343   3.912  -6.748  0.00  0.00    -0.217 NA
ATOM      8  C   UNL     1       1.323   4.297  -5.946  0.00  0.00    +0.180 A 
ATOM      9  N   UNL     1       0.483   5.108  -6.619  0.00  0.00    -0.294 N 
ATOM     10  C   UNL     1       0.891   5.016  -7.909  0.00  0.00    +0.171 A 
ATOM     11  N   UNL     1       0.374   5.416  -9.084  0.00  0.00    -0.192 NA
ENDROOT
BRANCH   9  12
ATOM     12  C   UNL     1      -0.354   6.187  -6.103  0.00  0.00    +0.109 C 
BRANCH  12  13
ATOM     13  C   UNL     1      -1.743   5.693  -5.738  0.00  0.00    +0.030 C 
BRANCH  13  14
ATOM     14  C   UNL     1      -2.060   6.099  -4.327  0.00  0.00    +0.068 C 
BRANCH  14  15
ATOM     15  C   UNL     1      -3.138   5.238  -3.704  0.00  0.00    +0.185 C 
ATOM     16  O   UNL     1      -2.562   4.679  -2.553  0.00  0.00    -0.220 OA
ENDBRANCH  14  15
BRANCH  14  17
ATOM     17  C   UNL     1      -2.301   7.567  -4.151  0.00  0.00    +0.185 C 
ATOM     18  O   UNL     1      -2.000   8.041  -2.886  0.00  0.00    -0.220 OA
ENDBRANCH  14  17
ENDBRANCH  13  14
ENDBRANCH  12  13
ENDBRANCH   9  12
TORSDOF 5
ENDMDL
MODEL 5
REMARK VINA RESULT:      -6.1      3.973      7.552
REMARK  Name = 
REMARK  5 active torsions:
REMARK  status: ('A' for Active; 'I' for Inactive)
REMARK    1  A    between atoms: N_8  and  C_9
REMARK    2  A    between atoms: C_9  and  C_10
REMARK    3  A    between atoms: C_10  and  C_11
REMARK    4  A    between atoms: C_11  and  C_12
REMARK    5  A    between atoms: C_11  and  C_14
REMARK                            x       y       z     vdW  Elec       q    Type
REMARK                         _______ _______ _______ _____ _____    ______ ____
ROOT
ATOM      1  N   UNL     1       4.040   7.432  -5.275  0.00  0.00    -0.086 NA
ATOM      2  C   UNL     1       3.389   6.531  -6.175  0.00  0.00    +0.261 A 
ATOM      3  N   UNL     1       4.076   5.823  -7.104  0.00  0.00    -0.171 NA
ATOM      4  C   UNL     1       3.504   5.503  -8.290  0.00  0.00    +0.302 A 
ATOM      5  O   UNL     1       4.039   4.636  -9.043  0.00  0.00    -0.263 OA
ATOM      6  C   UNL     1       2.120   5.592  -8.327  0.00  0.00    +0.175 A 
ATOM      7  N   UNL     1       1.219   5.498  -9.325  0.00  0.00    -0.217 NA
ATOM      8  C   UNL     1      -0.018   5.478  -8.775  0.00  0.00    +0.180 A 
ATOM      9  N   UNL     1       0.067   5.586  -7.434  0.00  0.00    -0.294 N 
ATOM     10  C   UNL     1       1.365   5.909  -7.206  0.00  0.00    +0.171 A 
ATOM     11  N   UNL     1       2.049   6.332  -6.128  0.00  0.00    -0.192 NA
ENDROOT
BRANCH   9  12
ATOM     12  C   UNL     1      -0.831   5.053  -6.415  0.00  0.00    +0.109 C 
BRANCH  12  13
ATOM     13  C   UNL     1      -2.093   5.890  -6.287  0.00  0.00    +0.030 C 
BRANCH  13  14
ATOM     14  C   UNL     1      -2.142   6.506  -4.918  0.00  0.00    +0.068 C 
BRANCH  14  15
ATOM     15  C   UNL     1      -1.216   7.697  -4.786  0.00  0.00    +0.185 C 
ATOM     16  O   UNL     1      -2.001   8.734  -4.259  0.00  0.00    -0.220 OA
ENDBRANCH  14  15
BRANCH  14  17
ATOM     17  C   UNL     1      -2.003   5.522  -3.798  0.00  0.00    +0.185 C 
ATOM     18  O   UNL     1      -3.199   4.956  -3.392  0.00  0.00    -0.220 OA
ENDBRANCH  14  17
ENDBRANCH  13  14
ENDBRANCH  12  13
ENDBRANCH   9  12
TORSDOF 5
ENDMDL
MODEL 6
REMARK VINA RESULT:      -6.1      2.592      5.820
REMARK  Name = 
REMARK  5 active torsions:
REMARK  status: ('A' for Active; 'I' for Inactive)
REMARK    1  A    between atoms: N_8  and  C_9
REMARK    2  A    between atoms: C_9  and  C_10
REMARK    3  A    between atoms: C_10  and  C_11
REMARK    4  A    between atoms: C_11  and  C_12
REMARK    5  A    between atoms: C_11  and  C_14
REMARK                            x       y       z     vdW  Elec       q    Type
REMARK                         _______ _______ _______ _____ _____    ______ ____
ROOT
ATOM      1  N   UNL     1       7.188   6.180  -9.508  0.00  0.00    -0.086 NA
ATOM      2  C   UNL     1       6.108   5.726 -10.331  0.00  0.00    +0.261 A 
ATOM      3  N   UNL     1       6.308   5.286 -11.597  0.00  0.00    -0.171 NA
ATOM      4  C   UNL     1       5.355   5.460 -12.545  0.00  0.00    +0.302 A 
ATOM      5  O   UNL     1       5.428   4.833 -13.644  0.00  0.00    -0.263 OA
ATOM      6  C   UNL     1       4.083   5.739 -12.068  0.00  0.00    +0.175 A 
ATOM      7  N   UNL     1       2.935   6.105 -12.671  0.00  0.00    -0.217 NA
ATOM      8  C   UNL     1       1.944   6.065 -11.750  0.00  0.00    +0.180 A 
ATOM      9  N   UNL     1       2.440   5.706 -10.548  0.00  0.00    -0.294 N 
ATOM     10  C   UNL     1       3.785   5.759 -10.713  0.00  0.00    +0.171 A 
ATOM     11  N   UNL     1       4.833   5.703  -9.872  0.00  0.00    -0.192 NA
ENDROOT
BRANCH   9  12
ATOM     12  C   UNL     1       1.778   4.986  -9.465  0.00  0.00    +0.109 C 
BRANCH  12  13
ATOM     13  C   UNL     1       1.057   5.933  -8.521  0.00  0.00    +0.030 C 
BRANCH  13  14
ATOM     14  C   UNL     1       1.816   6.018  -7.228  0.00  0.00    +0.068 C 
BRANCH  14  15
ATOM     15  C   UNL     1       2.762   7.200  -7.189  0.00  0.00    +0.185 C 
ATOM     16  O   UNL     1       2.097   8.242  -7.856  0.00  0.00    -0.220 OA
ENDBRANCH  14  15
BRANCH  14  17
ATOM     17  C   UNL     1       2.461   4.732  -6.810  0.00  0.00    +0.185 C 
ATOM     18  O   UNL     1       1.606   3.858  -6.160  0.00  0.00    -0.220 OA
ENDBRANCH  14  17
ENDBRANCH  13  14
ENDBRANCH  12  13
ENDBRANCH   9  12
TORSDOF 5
ENDMDL
MODEL 7
REMARK VINA RESULT:      -6.0      4.395      6.472
REMARK  Name = 
REMARK  5 active torsions:
REMARK  status: ('A' for Active; 'I' for Inactive)
REMARK    1  A    between atoms: N_8  and  C_9
REMARK    2  A    between atoms: C_9  and  C_10
REMARK    3  A    between atoms: C_10  and  C_11
REMARK    4  A    between atoms: C_11  and  C_12
REMARK    5  A    between atoms: C_11  and  C_14
REMARK                            x       y       z     vdW  Elec       q    Type
REMARK                         _______ _______ _______ _____ _____    ______ ____
ROOT
ATOM      1  N   UNL     1      -2.499   5.179  -2.204  0.00  0.00    -0.086 NA
ATOM      2  C   UNL     1      -1.080   5.181  -2.390  0.00  0.00    +0.261 A 
ATOM      3  N   UNL     1      -0.221   4.997  -1.359  0.00  0.00    -0.171 NA
ATOM      4  C   UNL     1       0.996   5.592  -1.361  0.00  0.00    +0.302 A 
ATOM      5  O   UNL     1       1.888   5.224  -0.538  0.00  0.00    -0.263 OA
ATOM      6  C   UNL     1       1.435   6.046  -2.596  0.00  0.00    +0.175 A 
ATOM      7  N   UNL     1       2.490   6.792  -2.979  0.00  0.00    -0.217 NA
ATOM      8  C   UNL     1       2.545   6.780  -4.332  0.00  0.00    +0.180 A 
ATOM      9  N   UNL     1       1.521   6.060  -4.833  0.00  0.00    -0.294 N 
ATOM     10  C   UNL     1       0.717   5.834  -3.764  0.00  0.00    +0.171 A 
ATOM     11  N   UNL     1      -0.530   5.352  -3.617  0.00  0.00    -0.192 NA
ENDROOT
BRANCH   9  12
ATOM     12  C   UNL     1       1.466   5.292  -6.072  0.00  0.00    +0.109 C 
BRANCH  12  13
ATOM     13  C   UNL     1       0.480   5.893  -7.060  0.00  0.00    +0.030 C 
BRANCH  13  14
ATOM     14  C   UNL     1       1.195   6.212  -8.342  0.00  0.00    +0.068 C 
BRANCH  14  15
ATOM     15  C   UNL     1       1.456   4.979  -9.181  0.00  0.00    +0.185 C 
ATOM     16  O   UNL     1       0.784   5.195 -10.395  0.00  0.00    -0.220 OA
ENDBRANCH  14  15
BRANCH  14  17
ATOM     17  C   UNL     1       2.405   7.077  -8.169  0.00  0.00    +0.185 C 
ATOM     18  O   UNL     1       2.116   8.400  -7.881  0.00  0.00    -0.220 OA
ENDBRANCH  14  17
ENDBRANCH  13  14
ENDBRANCH  12  13
ENDBRANCH   9  12
TORSDOF 5
ENDMDL
MODEL 8
REMARK VINA RESULT:      -6.0      2.482      4.193
REMARK  Name = 
REMARK  5 active torsions:
REMARK  status: ('A' for Active; 'I' for Inactive)
REMARK    1  A    between atoms: N_8  and  C_9
REMARK    2  A    between atoms: C_9  and  C_10
REMARK    3  A    between atoms: C_10  and  C_11
REMARK    4  A    between atoms: C_11  and  C_12
REMARK    5  A    between atoms: C_11  and  C_14
REMARK                            x       y       z     vdW  Elec       q    Type
REMARK                         _______ _______ _______ _____ _____    ______ ____
ROOT
ATOM      1  N   UNL     1       2.420   5.956 -14.470  0.00  0.00    -0.086 NA
ATOM      2  C   UNL     1       2.178   5.836 -13.065  0.00  0.00    +0.261 A 
ATOM      3  N   UNL     1       0.925   5.741 -12.559  0.00  0.00    -0.171 NA
ATOM      4  C   UNL     1       0.635   6.246 -11.335  0.00  0.00    +0.302 A 
ATOM      5  O   UNL     1      -0.450   5.936 -10.758  0.00  0.00    -0.263 OA
ATOM      6  C   UNL     1       1.729   6.491 -10.517  0.00  0.00    +0.175 A 
ATOM      7  N   UNL     1       1.867   7.102  -9.324  0.00  0.00    -0.217 NA
ATOM      8  C   UNL     1       3.132   6.898  -8.890  0.00  0.00    +0.180 A 
ATOM      9  N   UNL     1       3.827   6.186  -9.799  0.00  0.00    -0.294 N 
ATOM     10  C   UNL     1       3.025   6.167 -10.893  0.00  0.00    +0.171 A 
ATOM     11  N   UNL     1       3.199   5.797 -12.174  0.00  0.00    -0.192 NA
ENDROOT
BRANCH   9  12
ATOM     12  C   UNL     1       4.932   5.257  -9.582  0.00  0.00    +0.109 C 
BRANCH  12  13
ATOM     13  C   UNL     1       6.278   5.954  -9.683  0.00  0.00    +0.030 C 
BRANCH  13  14
ATOM     14  C   UNL     1       6.670   6.067 -11.129  0.00  0.00    +0.068 C 
BRANCH  14  15
ATOM     15  C   UNL     1       8.018   5.439 -11.413  0.00  0.00    +0.185 C 
ATOM     16  O   UNL     1       7.801   4.529 -12.460  0.00  0.00    -0.220 OA
ENDBRANCH  14  15
BRANCH  14  17
ATOM     17  C   UNL     1       6.530   7.447 -11.696  0.00  0.00    +0.185 C 
ATOM     18  O   UNL     1       6.394   7.479 -13.073  0.00  0.00    -0.220 OA
ENDBRANCH  14  17
ENDBRANCH  13  14
ENDBRANCH  12  13
ENDBRANCH   9  12
TORSDOF 5
ENDMDL
MODEL 9
REMARK VINA RESULT:      -6.0      3.110      5.986
REMARK  Name = 
REMARK  5 active torsions:
REMARK  status: ('A' for Active; 'I' for Inactive)
REMARK    1  A    between atoms: N_8  and  C_9
REMARK    2  A    between atoms: C_9  and  C_10
REMARK    3  A    between atoms: C_10  and  C_11
REMARK    4  A    between atoms: C_11  and  C_12
REMARK    5  A    between atoms: C_11  and  C_14
REMARK                            x       y       z     vdW  Elec       q    Type
REMARK                         _______ _______ _______ _____ _____    ______ ____
ROOT
ATOM      1  N   UNL     1       7.430   4.842 -13.363  0.00  0.00    -0.086 NA
ATOM      2  C   UNL     1       6.917   5.398 -12.148  0.00  0.00    +0.261 A 
ATOM      3  N   UNL     1       7.730   5.917 -11.197  0.00  0.00    -0.171 NA
ATOM      4  C   UNL     1       7.390   5.851  -9.887  0.00  0.00    +0.302 A 
ATOM      5  O   UNL     1       8.009   6.550  -9.031  0.00  0.00    -0.263 OA
ATOM      6  C   UNL     1       6.050   5.594  -9.633  0.00  0.00    +0.175 A 
ATOM      7  N   UNL     1       5.365   5.321  -8.504  0.00  0.00    -0.217 NA
ATOM      8  C   UNL     1       4.045   5.338  -8.799  0.00  0.00    +0.180 A 
ATOM      9  N   UNL     1       3.864   5.591 -10.112  0.00  0.00    -0.294 N 
ATOM     10  C   UNL     1       5.107   5.492 -10.645  0.00  0.00    +0.171 A 
ATOM     11  N   UNL     1       5.585   5.444 -11.901  0.00  0.00    -0.192 NA
ENDROOT
BRANCH   9  12
ATOM     12  C   UNL     1       2.746   6.261 -10.767  0.00  0.00    +0.109 C 
BRANCH  12  13
ATOM     13  C   UNL     1       1.666   6.653  -9.773  0.00  0.00    +0.030 C 
BRANCH  13  14
ATOM     14  C   UNL     1       0.327   6.222 -10.298  0.00  0.00    +0.068 C 
BRANCH  14  15
ATOM     15  C   UNL     1       0.166   4.717 -10.309  0.00  0.00    +0.185 C 
ATOM     16  O   UNL     1      -0.456   4.409 -11.530  0.00  0.00    -0.220 OA
ENDBRANCH  14  15
BRANCH  14  17
ATOM     17  C   UNL     1      -0.059   6.868 -11.594  0.00  0.00    +0.185 C 
ATOM     18  O   UNL     1      -0.630   8.121 -11.452  0.00  0.00    -0.220 OA
ENDBRANCH  14  17
ENDBRANCH  13  14
ENDBRANCH  12  13
ENDBRANCH   9  12
TORSDOF 5
ENDMDL
