MODEL 1
REMARK VINA RESULT:      -6.4      0.000      0.000
REMARK  Name = 
REMARK  2 active torsions:
REMARK  status: ('A' for Active; 'I' for Inactive)
REMARK    1  A    between atoms: C_6  and  C_7
REMARK    2  A    between atoms: C_10  and  C_11
REMARK                            x       y       z     vdW  Elec       q    Type
REMARK                         _______ _______ _______ _____ _____    ______ ____
ROOT
ATOM      1  C   UNL     1       7.663   5.442  -9.566  0.00  0.00    +0.052 C 
ATOM      2  C   UNL     1       6.190   5.557  -9.380  0.00  0.00    +0.063 A 
ATOM      3  C   UNL     1       5.489   6.252 -10.356  0.00  0.00    +0.015 A 
ATOM      4  C   UNL     1       4.302   6.893 -10.039  0.00  0.00    +0.016 A 
ATOM      5  C   UNL     1       3.719   6.563  -8.842  0.00  0.00    +0.126 A 
ATOM      6  C   UNL     1       4.273   5.553  -8.064  0.00  0.00    +0.289 A 
ATOM      7  O   UNL     1       3.497   4.938  -7.275  0.00  0.00    -0.264 OA
ATOM      8  N   UNL     1       5.565   5.174  -8.242  0.00  0.00    -0.212 NA
ENDROOT
BRANCH   3   9
ATOM      9  C   UNL     1       5.862   6.068 -11.766  0.00  0.00    +0.004 A 
ATOM     10  C   UNL     1       5.195   5.142 -12.559  0.00  0.00    +0.021 A 
ATOM     11  C   UNL     1       4.941   5.456 -13.887  0.00  0.00    +0.099 A 
ATOM     12  N   UNL     1       5.447   6.584 -14.444  0.00  0.00    -0.242 NA
ATOM     13  C   UNL     1       6.480   7.185 -13.805  0.00  0.00    +0.099 A 
ATOM     14  C   UNL     1       6.504   7.110 -12.423  0.00  0.00    +0.021 A 
ENDBRANCH   3   9
BRANCH   5  15
ATOM     15  C   UNL     1       2.620   7.359  -8.344  0.00  0.00    +0.105 C 
ATOM     16  N   UNL     1       2.018   8.242  -7.876  0.00  0.00    -0.191 NA
ENDBRANCH   5  15
TORSDOF 2
ENDMDL
MODEL 2
REMARK VINA RESULT:      -6.3      5.997      7.710
REMARK  Name = 
REMARK  2 active torsions:
REMARK  status: ('A' for Active; 'I' for Inactive)
REMARK    1  A    between atoms: C_6  and  C_7
REMARK    2  A    between atoms: C_10  and  C_11
REMARK                            x       y       z     vdW  Elec       q    Type
REMARK                         _______ _______ _______ _____ _____    ______ ____
ROOT
ATOM      1  C   UNL     1       1.388   4.704  -7.594  0.00  0.00    +0.052 C 
ATOM      2  C   UNL     1       0.652   5.324  -6.458  0.00  0.00    +0.063 A 
ATOM      3  C   UNL     1       1.298   5.342  -5.230  0.00  0.00    +0.015 A 
ATOM      4  C   UNL     1       0.561   5.351  -4.055  0.00  0.00    +0.016 A 
ATOM      5  C   UNL     1      -0.774   5.642  -4.162  0.00  0.00    +0.126 A 
ATOM      6  C   UNL     1      -1.301   6.006  -5.396  0.00  0.00    +0.289 A 
ATOM      7  O   UNL     1      -2.342   6.727  -5.391  0.00  0.00    -0.264 OA
ATOM      8  N   UNL     1      -0.647   5.695  -6.544  0.00  0.00    -0.212 NA
ENDROOT
BRANCH   3   9
ATOM      9  C   UNL     1       2.738   5.633  -5.187  0.00  0.00    +0.004 A 
ATOM     10  C   UNL     1       3.198   6.941  -5.284  0.00  0.00    +0.021 A 
ATOM     11  C   UNL     1       4.293   7.324  -4.521  0.00  0.00    +0.099 A 
ATOM     12  N   UNL     1       4.987   6.413  -3.794  0.00  0.00    -0.242 NA
ATOM     13  C   UNL     1       4.826   5.107  -4.115  0.00  0.00    +0.099 A 
ATOM     14  C   UNL     1       3.582   4.713  -4.578  0.00  0.00    +0.021 A 
ENDBRANCH   3   9
BRANCH   5  15
ATOM     15  C   UNL     1      -1.639   5.435  -3.023  0.00  0.00    +0.105 C 
ATOM     16  N   UNL     1      -2.407   4.946  -2.291  0.00  0.00    -0.191 NA
ENDBRANCH   5  15
TORSDOF 2
ENDMDL
MODEL 3
REMARK VINA RESULT:      -6.1      3.974      7.304
REMARK  Name = 
REMARK  2 active torsions:
REMARK  status: ('A' for Active; 'I' for Inactive)
REMARK    1  A    between atoms: C_6  and  C_7
REMARK    2  A    between atoms: C_10  and  C_11
REMARK                            x       y       z     vdW  Elec       q    Type
REMARK                         _______ _______ _______ _____ _____    ______ ____
ROOT
ATOM      1  C   UNL     1       1.931   3.878  -6.384  0.00  0.00    +0.052 C 
ATOM      2  C   UNL     1       1.761   4.897  -7.457  0.00  0.00    +0.063 A 
ATOM      3  C   UNL     1       0.485   5.413  -7.633  0.00  0.00    +0.015 A 
ATOM      4  C   UNL     1       0.091   5.888  -8.874  0.00  0.00    +0.016 A 
ATOM      5  C   UNL     1       1.080   6.100  -9.800  0.00  0.00    +0.126 A 
ATOM      6  C   UNL     1       2.411   5.933  -9.435  0.00  0.00    +0.289 A 
ATOM      7  O   UNL     1       3.277   6.586 -10.087  0.00  0.00    -0.264 OA
ATOM      8  N   UNL     1       2.739   5.191  -8.346  0.00  0.00    -0.212 NA
ENDROOT
BRANCH   3   9
ATOM      9  C   UNL     1      -0.332   5.708  -6.448  0.00  0.00    +0.004 A 
ATOM     10  C   UNL     1       0.064   6.681  -5.539  0.00  0.00    +0.021 A 
ATOM     11  C   UNL     1      -0.904   7.489  -4.956  0.00  0.00    +0.099 A 
ATOM     12  N   UNL     1      -2.223   7.252  -5.162  0.00  0.00    -0.242 NA
ATOM     13  C   UNL     1      -2.570   6.027  -5.626  0.00  0.00    +0.099 A 
ATOM     14  C   UNL     1      -1.686   5.396  -6.482  0.00  0.00    +0.021 A 
ENDBRANCH   3   9
BRANCH   5  15
ATOM     15  C   UNL     1       0.720   6.363 -11.175  0.00  0.00    +0.105 C 
ATOM     16  N   UNL     1       0.538   6.923 -12.183  0.00  0.00    -0.191 NA
ENDBRANCH   5  15
TORSDOF 2
ENDMDL
MODEL 4
REMARK VINA RESULT:      -6.1      4.928      6.903
REMARK  Name = 
REMARK  2 active torsions:
REMARK  status: ('A' for Active; 'I' for Inactive)
REMARK    1  A    between atoms: C_6  and  C_7
REMARK    2  A    between atoms: C_10  and  C_11
REMARK                            x       y       z     vdW  Elec       q    Type
REMARK                         _______ _______ _______ _____ _____    ______ ____
ROOT
ATOM      1  C   UNL     1       3.379   7.239  -4.062  0.00  0.00    +0.052 C 
ATOM      2  C   UNL     1       2.209   6.345  -3.843  0.00  0.00    +0.063 A 
ATOM      3  C   UNL     1       1.366   6.142  -4.926  0.00  0.00    +0.015 A 
ATOM      4  C   UNL     1       0.029   5.837  -4.722  0.00  0.00    +0.016 A 
ATOM      5  C   UNL     1      -0.334   5.457  -3.455  0.00  0.00    +0.126 A 
ATOM      6  C   UNL     1       0.643   5.298  -2.479  0.00  0.00    +0.289 A 
ATOM      7  O   UNL     1       0.389   4.501  -1.529  0.00  0.00    -0.264 OA
ATOM      8  N   UNL     1       1.859   5.886  -2.618  0.00  0.00    -0.212 NA
ENDROOT
BRANCH   3   9
ATOM      9  C   UNL     1       1.953   5.976  -6.263  0.00  0.00    +0.004 A 
ATOM     10  C   UNL     1       2.488   4.754  -6.654  0.00  0.00    +0.021 A 
ATOM     11  C   UNL     1       2.312   4.335  -7.966  0.00  0.00    +0.099 A 
ATOM     12  N   UNL     1       1.747   5.153  -8.888  0.00  0.00    -0.242 NA
ATOM     13  C   UNL     1       1.704   6.477  -8.603  0.00  0.00    +0.099 A 
ATOM     14  C   UNL     1       1.550   6.838  -7.276  0.00  0.00    +0.021 A 
ENDBRANCH   3   9
BRANCH   5  15
ATOM     15  C   UNL     1      -1.736   5.358  -3.118  0.00  0.00    +0.105 C 
ATOM     16  N   UNL     1      -2.764   4.919  -2.784  0.00  0.00    -0.191 NA
ENDBRANCH   5  15
TORSDOF 2
ENDMDL
MODEL 5
REMARK VINA RESULT:      -6.1      4.962      8.159
REMARK  Name = 
REMARK  2 active torsions:
REMARK  status: ('A' for Active; 'I' for Inactive)
REMARK    1  A    between atoms: C_6  and  C_7
REMARK    2  A    between atoms: C_10  and  C_11
REMARK                            x       y       z     vdW  Elec       q    Type
REMARK                         _______ _______ _______ _____ _____    ______ ____
ROOT
ATOM      1  C   UNL     1       4.951   7.829  -4.157  0.00  0.00    +0.052 C 
ATOM      2  C   UNL     1       3.919   7.085  -4.931  0.00  0.00    +0.063 A 
ATOM      3  C   UNL     1       3.507   5.866  -4.412  0.00  0.00    +0.015 A 
ATOM      4  C   UNL     1       3.031   4.874  -5.256  0.00  0.00    +0.016 A 
ATOM      5  C   UNL     1       2.710   5.250  -6.535  0.00  0.00    +0.126 A 
ATOM      6  C   UNL     1       2.777   6.591  -6.895  0.00  0.00    +0.289 A 
ATOM      7  O   UNL     1       2.034   6.973  -7.846  0.00  0.00    -0.264 OA
ATOM      8  N   UNL     1       3.519   7.464  -6.167  0.00  0.00    -0.212 NA
ENDROOT
BRANCH   3   9
ATOM      9  C   UNL     1       3.315   5.738  -2.960  0.00  0.00    +0.004 A 
ATOM     10  C   UNL     1       2.109   6.098  -2.372  0.00  0.00    +0.021 A 
ATOM     11  C   UNL     1       1.624   5.335  -1.317  0.00  0.00    +0.099 A 
ATOM     12  N   UNL     1       2.370   4.339  -0.779  0.00  0.00    -0.242 NA
ATOM     13  C   UNL     1       3.701   4.350  -1.034  0.00  0.00    +0.099 A 
ATOM     14  C   UNL     1       4.110   4.836  -2.264  0.00  0.00    +0.021 A 
ENDBRANCH   3   9
BRANCH   5  15
ATOM     15  C   UNL     1       2.439   4.233  -7.526  0.00  0.00    +0.105 C 
ATOM     16  N   UNL     1       2.520   3.579  -8.490  0.00  0.00    -0.191 NA
ENDBRANCH   5  15
TORSDOF 2
ENDMDL
MODEL 6
REMARK VINA RESULT:      -6.0      4.976      8.489
REMARK  Name = 
REMARK  2 active torsions:
REMARK  status: ('A' for Active; 'I' for Inactive)
REMARK    1  A    between atoms: C_6  and  C_7
REMARK    2  A    between atoms: C_10  and  C_11
REMARK                            x       y       z     vdW  Elec       q    Type
REMARK                         _______ _______ _______ _____ _____    ______ ____
ROOT
ATOM      1  C   UNL     1       0.889   5.211  -4.287  0.00  0.00    +0.052 C 
ATOM      2  C   UNL     1       0.791   5.606  -5.719  0.00  0.00    +0.063 A 
ATOM      3  C   UNL     1      -0.486   5.703  -6.255  0.00  0.00    +0.015 A 
ATOM      4  C   UNL     1      -0.690   5.500  -7.611  0.00  0.00    +0.016 A 
ATOM      5  C   UNL     1       0.422   5.504  -8.413  0.00  0.00    +0.126 A 
ATOM      6  C   UNL     1       1.664   5.804  -7.865  0.00  0.00    +0.289 A 
ATOM      7  O   UNL     1       2.539   6.286  -8.643  0.00  0.00    -0.264 OA
ATOM      8  N   UNL     1       1.873   5.695  -6.528  0.00  0.00    -0.212 NA
ENDROOT
BRANCH   3   9
ATOM      9  C   UNL     1      -1.556   6.293  -5.439  0.00  0.00    +0.004 A 
ATOM     10  C   UNL     1      -2.509   5.485  -4.830  0.00  0.00    +0.021 A 
ATOM     11  C   UNL     1      -2.963   5.823  -3.562  0.00  0.00    +0.099 A 
ATOM     12  N   UNL     1      -2.591   6.989  -2.978  0.00  0.00    -0.242 NA
ATOM     13  C   UNL     1      -2.086   7.955  -3.782  0.00  0.00    +0.099 A 
ATOM     14  C   UNL     1      -1.350   7.549  -4.881  0.00  0.00    +0.021 A 
ENDBRANCH   3   9
BRANCH   5  15
ATOM     15  C   UNL     1       0.308   5.064  -9.785  0.00  0.00    +0.105 C 
ATOM     16  N   UNL     1      -0.120   4.879 -10.855  0.00  0.00    -0.191 NA
ENDBRANCH   5  15
TORSDOF 2
ENDMDL
MODEL 7
REMARK VINA RESULT:      -6.0      2.539      3.805
REMARK  Name = 
REMARK  2 active torsions:
REMARK  status: ('A' for Active; 'I' for Inactive)
REMARK    1  A    between atoms: C_6  and  C_7
REMARK    2  A    between atoms: C_10  and  C_11
REMARK                            x       y       z     vdW  Elec       q    Type
REMARK                         _______ _______ _______ _____ _____    ______ ____
ROOT
ATOM      1  C   UNL     1       2.678   3.732  -8.590  0.00  0.00    +0.052 C 
ATOM      2  C   UNL     1       2.825   4.928  -7.715  0.00  0.00    +0.063 A 
ATOM      3  C   UNL     1       4.056   5.569  -7.732  0.00  0.00    +0.015 A 
ATOM      4  C   UNL     1       4.489   6.277  -6.621  0.00  0.00    +0.016 A 
ATOM      5  C   UNL     1       3.551   6.561  -5.663  0.00  0.00    +0.126 A 
ATOM      6  C   UNL     1       2.220   6.226  -5.883  0.00  0.00    +0.289 A 
ATOM      7  O   UNL     1       1.343   6.908  -5.275  0.00  0.00    -0.264 OA
ATOM      8  N   UNL     1       1.888   5.287  -6.806  0.00  0.00    -0.212 NA
ENDROOT
BRANCH   3   9
ATOM      9  C   UNL     1       4.758   5.726  -9.014  0.00  0.00    +0.004 A 
ATOM     10  C   UNL     1       4.265   6.581  -9.991  0.00  0.00    +0.021 A 
ATOM     11  C   UNL     1       5.162   7.319 -10.751  0.00  0.00    +0.099 A 
ATOM     12  N   UNL     1       6.498   7.116 -10.641  0.00  0.00    -0.242 NA
ATOM     13  C   UNL     1       6.907   5.958 -10.070  0.00  0.00    +0.099 A 
ATOM     14  C   UNL     1       6.114   5.427  -9.067  0.00  0.00    +0.021 A 
ENDBRANCH   3   9
BRANCH   5  15
ATOM     15  C   UNL     1       3.979   7.080  -4.383  0.00  0.00    +0.105 C 
ATOM     16  N   UNL     1       4.270   7.826  -3.534  0.00  0.00    -0.191 NA
ENDBRANCH   5  15
TORSDOF 2
ENDMDL
MODEL 8
REMARK VINA RESULT:      -6.0      2.748      4.165
REMARK  Name = 
REMARK  2 active torsions:
REMARK  status: ('A' for Active; 'I' for Inactive)
REMARK    1  A    between atoms: C_6  and  C_7
REMARK    2  A    between atoms: C_10  and  C_11
REMARK                            x       y       z     vdW  Elec       q    Type
REMARK                         _______ _______ _______ _____ _____    ______ ____
ROOT
ATOM      1  C   UNL     1       2.597   7.521  -8.318  0.00  0.00    +0.052 C 
ATOM      2  C   UNL     1       2.379   6.544  -9.420  0.00  0.00    +0.063 A 
ATOM      3  C   UNL     1       3.286   6.572 -10.470  0.00  0.00    +0.015 A 
ATOM      4  C   UNL     1       2.899   6.161 -11.736  0.00  0.00    +0.016 A 
ATOM      5  C   UNL     1       1.723   5.464 -11.830  0.00  0.00    +0.126 A 
ATOM      6  C   UNL     1       1.035   5.118 -10.672  0.00  0.00    +0.289 A 
ATOM      7  O   UNL     1       0.284   4.101 -10.726  0.00  0.00    -0.264 OA
ATOM      8  N   UNL     1       1.264   5.781  -9.509  0.00  0.00    -0.212 NA
ENDROOT
BRANCH   3   9
ATOM      9  C   UNL     1       4.712   6.769 -10.173  0.00  0.00    +0.004 A 
ATOM     10  C   UNL     1       5.435   5.794  -9.496  0.00  0.00    +0.021 A 
ATOM     11  C   UNL     1       6.752   5.558  -9.868  0.00  0.00    +0.099 A 
ATOM     12  N   UNL     1       7.369   6.348 -10.781  0.00  0.00    -0.242 NA
ATOM     13  C   UNL     1       6.815   7.558 -11.033  0.00  0.00    +0.099 A 
ATOM     14  C   UNL     1       5.437   7.656 -10.961  0.00  0.00    +0.021 A 
ENDBRANCH   3   9
BRANCH   5  15
ATOM     15  C   UNL     1       1.146   5.216 -13.132  0.00  0.00    +0.105 C 
ATOM     16  N   UNL     1       0.973   4.775 -14.199  0.00  0.00    -0.191 NA
ENDBRANCH   5  15
TORSDOF 2
ENDMDL
MODEL 9
REMARK VINA RESULT:      -5.9      3.824      4.991
REMARK  Name = 
REMARK  2 active torsions:
REMARK  status: ('A' for Active; 'I' for Inactive)
REMARK    1  A    between atoms: C_6  and  C_7
REMARK    2  A    between atoms: C_10  and  C_11
REMARK                            x       y       z     vdW  Elec       q    Type
REMARK                         _______ _______ _______ _____ _____    ______ ____
ROOT
ATOM      1  C   UNL     1       2.921   6.269  -9.678  0.00  0.00    +0.052 C 
ATOM      2  C   UNL     1       1.914   5.624  -8.790  0.00  0.00    +0.063 A 
ATOM      3  C   UNL     1       0.579   5.836  -9.102  0.00  0.00    +0.015 A 
ATOM      4  C   UNL     1      -0.385   5.793  -8.107  0.00  0.00    +0.016 A 
ATOM      5  C   UNL     1      -0.012   5.249  -6.905  0.00  0.00    +0.126 A 
ATOM      6  C   UNL     1       1.252   4.685  -6.768  0.00  0.00    +0.289 A 
ATOM      7  O   UNL     1       1.393   3.785  -5.889  0.00  0.00    -0.264 OA
ATOM      8  N   UNL     1       2.249   5.011  -7.630  0.00  0.00    -0.212 NA
ENDROOT
BRANCH   3   9
ATOM      9  C   UNL     1       0.168   5.824 -10.513  0.00  0.00    +0.004 A 
ATOM     10  C   UNL     1      -0.030   7.014 -11.203  0.00  0.00    +0.021 A 
ATOM     11  C   UNL     1       0.354   7.089 -12.535  0.00  0.00    +0.099 A 
ATOM     12  N   UNL     1       0.792   5.988 -13.195  0.00  0.00    -0.242 NA
ATOM     13  C   UNL     1       0.499   4.781 -12.655  0.00  0.00    +0.099 A 
ATOM     14  C   UNL     1       0.446   4.696 -11.275  0.00  0.00    +0.021 A 
ENDBRANCH   3   9
BRANCH   5  15
ATOM     15  C   UNL     1      -0.884   5.389  -5.761  0.00  0.00    +0.105 C 
ATOM     16  N   UNL     1      -1.778   5.718  -5.085  0.00  0.00    -0.191 NA
ENDBRANCH   5  15
TORSDOF 2
ENDMDL
