MODEL 1
REMARK VINA RESULT:      -8.4      0.000      0.000
REMARK  Name = 
REMARK  12 active torsions:
REMARK  status: ('A' for Active; 'I' for Inactive)
REMARK    1  A    between atoms: C_2  and  O_3
REMARK    2  A    between atoms: O_3  and  C_4
REMARK    3  A    between atoms: C_4  and  C_6
REMARK    4  A    between atoms: C_6  and  C_8
REMARK    5  A    between atoms: C_8  and  C_9
REMARK    6  A    between atoms: C_9  and  C_10
REMARK    7  A    between atoms: C_9  and  N_23
REMARK    8  A    between atoms: C_10  and  C_11
REMARK    9  A    between atoms: C_14  and  C_15
REMARK   10  A    between atoms: C_24  and  C_26
REMARK   11  A    between atoms: C_26  and  C_27
REMARK   12  A    between atoms: C_27  and  C_28
REMARK                            x       y       z     vdW  Elec       q    Type
REMARK                         _______ _______ _______ _____ _____    ______ ____
ROOT
ATOM      1  C   UNL     1       0.339   6.547  -6.039  0.00  0.00    +0.100 C 
ENDROOT
BRANCH   1   2
ATOM      2  N   UNL     1      -1.224   6.416  -5.736  0.00  0.00    -0.207 NA
ATOM      3  C   UNL     1      -1.797   7.179  -4.746  0.00  0.00    +0.242 C 
ATOM      4  O   UNL     1      -1.425   8.374  -4.741  0.00  0.00    -0.273 OA
BRANCH   3   5
ATOM      5  C   UNL     1      -2.975   6.663  -3.981  0.00  0.00    +0.099 C 
BRANCH   5   6
ATOM      6  C   UNL     1      -2.784   6.917  -2.511  0.00  0.00    +0.124 C 
BRANCH   6   7
ATOM      7  C   UNL     1      -2.467   5.569  -1.933  0.00  0.00    +0.365 C 
ATOM      8  O   UNL     1      -1.303   5.372  -1.205  0.00  0.00    -0.246 OA
ATOM      9  O   UNL     1      -2.817   4.603  -2.678  0.00  0.00    -0.246 OA
ENDBRANCH   6   7
ENDBRANCH   5   6
ENDBRANCH   3   5
ENDBRANCH   1   2
BRANCH   1  10
ATOM     10  C   UNL     1       0.858   5.392  -4.941  0.00  0.00    +0.033 C 
BRANCH  10  11
ATOM     11  C   UNL     1       1.891   6.443  -4.173  0.00  0.00    +0.101 C 
ATOM     12  C   UNL     1       1.823   5.568  -2.760  0.00  0.00    +0.012 C 
BRANCH  11  13
ATOM     13  C   UNL     1       3.222   5.672  -4.706  0.00  0.00    +0.316 C 
ATOM     14  O   UNL     1       3.399   4.519  -4.357  0.00  0.00    -0.250 OA
BRANCH  13  15
ATOM     15  O   UNL     1       4.202   6.535  -5.199  0.00  0.00    -0.449 OA
BRANCH  15  17
ATOM     16  C   UNL     1       5.316   7.364  -3.291  0.00  0.00    +0.051 C 
ATOM     17  C   UNL     1       4.515   7.653  -4.401  0.00  0.00    +0.209 C 
ENDBRANCH  15  17
ENDBRANCH  13  15
ENDBRANCH  11  13
ENDBRANCH  10  11
ENDBRANCH   1  10
BRANCH   1  18
ATOM     18  C   UNL     1       0.231   5.418  -7.268  0.00  0.00    +0.048 C 
BRANCH  18  19
ATOM     19  C   UNL     1       1.519   5.626  -7.974  0.00  0.00    -0.020 A 
ATOM     20  C   UNL     1       2.071   6.900  -8.039  0.00  0.00    -0.004 A 
ATOM     21  C   UNL     1       3.434   6.966  -8.279  0.00  0.00    -0.000 A 
ATOM     22  C   UNL     1       4.123   5.908  -8.823  0.00  0.00    -0.000 A 
ATOM     23  C   UNL     1       3.603   4.637  -8.636  0.00  0.00    -0.000 A 
ATOM     24  C   UNL     1       2.339   4.508  -8.074  0.00  0.00    -0.004 A 
BRANCH  22  25
ATOM     25  C   UNL     1       5.140   6.074  -9.871  0.00  0.00    -0.000 A 
ATOM     26  C   UNL     1       4.929   6.899 -10.962  0.00  0.00    -0.000 A 
ATOM     27  C   UNL     1       5.928   7.683 -11.459  0.00  0.00    +0.000 A 
ATOM     28  C   UNL     1       7.234   7.558 -11.003  0.00  0.00    +0.000 A 
ATOM     29  C   UNL     1       7.514   6.493 -10.156  0.00  0.00    +0.000 A 
ATOM     30  C   UNL     1       6.466   5.783  -9.583  0.00  0.00    -0.000 A 
ENDBRANCH  22  25
ENDBRANCH  18  19
ENDBRANCH   1  18
TORSDOF 12
ENDMDL
MODEL 2
REMARK VINA RESULT:      -8.1      3.869      9.187
REMARK  Name = 
REMARK  12 active torsions:
REMARK  status: ('A' for Active; 'I' for Inactive)
REMARK    1  A    between atoms: C_2  and  O_3
REMARK    2  A    between atoms: O_3  and  C_4
REMARK    3  A    between atoms: C_4  and  C_6
REMARK    4  A    between atoms: C_6  and  C_8
REMARK    5  A    between atoms: C_8  and  C_9
REMARK    6  A    between atoms: C_9  and  C_10
REMARK    7  A    between atoms: C_9  and  N_23
REMARK    8  A    between atoms: C_10  and  C_11
REMARK    9  A    between atoms: C_14  and  C_15
REMARK   10  A    between atoms: C_24  and  C_26
REMARK   11  A    between atoms: C_26  and  C_27
REMARK   12  A    between atoms: C_27  and  C_28
REMARK                            x       y       z     vdW  Elec       q    Type
REMARK                         _______ _______ _______ _____ _____    ______ ____
ROOT
ATOM      1  C   UNL     1       5.136   6.088  -9.173  0.00  0.00    +0.100 C 
ENDROOT
BRANCH   1   2
ATOM      2  N   UNL     1       6.535   5.425  -9.565  0.00  0.00    -0.207 NA
ATOM      3  C   UNL     1       7.383   6.073 -10.433  0.00  0.00    +0.242 C 
ATOM      4  O   UNL     1       7.500   7.300 -10.212  0.00  0.00    -0.273 OA
BRANCH   3   5
ATOM      5  C   UNL     1       8.290   5.290 -11.328  0.00  0.00    +0.099 C 
BRANCH   5   6
ATOM      6  C   UNL     1       8.783   6.163 -12.449  0.00  0.00    +0.124 C 
BRANCH   6   7
ATOM      7  C   UNL     1       7.810   5.930 -13.566  0.00  0.00    +0.365 C 
ATOM      8  O   UNL     1       6.921   6.925 -13.945  0.00  0.00    -0.246 OA
ATOM      9  O   UNL     1       7.353   4.746 -13.602  0.00  0.00    -0.246 OA
ENDBRANCH   6   7
ENDBRANCH   5   6
ENDBRANCH   3   5
ENDBRANCH   1   2
BRANCH   1  10
ATOM     10  C   UNL     1       4.183   5.191 -10.220  0.00  0.00    +0.033 C 
BRANCH  10  11
ATOM     11  C   UNL     1       4.050   6.431 -11.319  0.00  0.00    +0.101 C 
ATOM     12  C   UNL     1       4.216   5.387 -12.603  0.00  0.00    +0.012 C 
BRANCH  11  13
ATOM     13  C   UNL     1       2.424   6.363 -11.341  0.00  0.00    +0.316 C 
ATOM     14  O   UNL     1       1.858   6.459 -12.415  0.00  0.00    -0.250 OA
BRANCH  13  15
ATOM     15  O   UNL     1       1.844   6.577 -10.090  0.00  0.00    -0.449 OA
BRANCH  15  17
ATOM     16  C   UNL     1       0.223   4.885  -9.817  0.00  0.00    +0.051 C 
ATOM     17  C   UNL     1       0.479   6.252  -9.967  0.00  0.00    +0.209 C 
ENDBRANCH  15  17
ENDBRANCH  13  15
ENDBRANCH  11  13
ENDBRANCH  10  11
ENDBRANCH   1  10
BRANCH   1  18
ATOM     18  C   UNL     1       4.920   4.986  -7.934  0.00  0.00    +0.048 C 
BRANCH  18  19
ATOM     19  C   UNL     1       3.562   5.342  -7.456  0.00  0.00    -0.020 A 
ATOM     20  C   UNL     1       2.667   4.335  -7.112  0.00  0.00    -0.004 A 
ATOM     21  C   UNL     1       1.634   4.697  -6.263  0.00  0.00    -0.000 A 
ATOM     22  C   UNL     1       1.262   6.009  -6.099  0.00  0.00    -0.000 A 
ATOM     23  C   UNL     1       2.217   6.984  -6.337  0.00  0.00    -0.000 A 
ATOM     24  C   UNL     1       3.433   6.607  -6.895  0.00  0.00    -0.004 A 
BRANCH  22  25
ATOM     25  C   UNL     1      -0.143   6.440  -6.050  0.00  0.00    -0.000 A 
ATOM     26  C   UNL     1      -1.164   5.637  -6.528  0.00  0.00    -0.000 A 
ATOM     27  C   UNL     1      -2.356   5.544  -5.873  0.00  0.00    +0.000 A 
ATOM     28  C   UNL     1      -2.655   6.377  -4.802  0.00  0.00    +0.000 A 
ATOM     29  C   UNL     1      -1.772   7.417  -4.538  0.00  0.00    +0.000 A 
ATOM     30  C   UNL     1      -0.522   7.421  -5.145  0.00  0.00    -0.000 A 
ENDBRANCH  22  25
ENDBRANCH  18  19
ENDBRANCH   1  18
TORSDOF 12
ENDMDL
MODEL 3
REMARK VINA RESULT:      -8.1      0.942      1.303
REMARK  Name = 
REMARK  12 active torsions:
REMARK  status: ('A' for Active; 'I' for Inactive)
REMARK    1  A    between atoms: C_2  and  O_3
REMARK    2  A    between atoms: O_3  and  C_4
REMARK    3  A    between atoms: C_4  and  C_6
REMARK    4  A    between atoms: C_6  and  C_8
REMARK    5  A    between atoms: C_8  and  C_9
REMARK    6  A    between atoms: C_9  and  C_10
REMARK    7  A    between atoms: C_9  and  N_23
REMARK    8  A    between atoms: C_10  and  C_11
REMARK    9  A    between atoms: C_14  and  C_15
REMARK   10  A    between atoms: C_24  and  C_26
REMARK   11  A    between atoms: C_26  and  C_27
REMARK   12  A    between atoms: C_27  and  C_28
REMARK                            x       y       z     vdW  Elec       q    Type
REMARK                         _______ _______ _______ _____ _____    ______ ____
ROOT
ATOM      1  C   UNL     1       1.158   5.960  -5.377  0.00  0.00    +0.100 C 
ENDROOT
BRANCH   1   2
ATOM      2  N   UNL     1      -0.421   5.808  -5.553  0.00  0.00    -0.207 NA
ATOM      3  C   UNL     1      -1.272   6.643  -4.868  0.00  0.00    +0.242 C 
ATOM      4  O   UNL     1      -0.922   7.844  -4.872  0.00  0.00    -0.273 OA
BRANCH   3   5
ATOM      5  C   UNL     1      -2.627   6.164  -4.450  0.00  0.00    +0.099 C 
BRANCH   5   6
ATOM      6  C   UNL     1      -3.010   6.790  -3.137  0.00  0.00    +0.124 C 
BRANCH   6   7
ATOM      7  C   UNL     1      -2.599   5.782  -2.105  0.00  0.00    +0.365 C 
ATOM      8  O   UNL     1      -1.572   6.064  -1.216  0.00  0.00    -0.246 OA
ATOM      9  O   UNL     1      -2.652   4.583  -2.517  0.00  0.00    -0.246 OA
ENDBRANCH   6   7
ENDBRANCH   5   6
ENDBRANCH   3   5
ENDBRANCH   1   2
BRANCH   1  10
ATOM     10  C   UNL     1       1.259   5.295  -3.842  0.00  0.00    +0.033 C 
BRANCH  10  11
ATOM     11  C   UNL     1       2.346   6.436  -3.312  0.00  0.00    +0.101 C 
ATOM     12  C   UNL     1       1.903   6.205  -1.726  0.00  0.00    +0.012 C 
BRANCH  11  13
ATOM     13  C   UNL     1       3.571   5.368  -3.232  0.00  0.00    +0.316 C 
ATOM     14  O   UNL     1       3.718   4.736  -2.201  0.00  0.00    -0.250 OA
BRANCH  13  15
ATOM     15  O   UNL     1       4.542   5.562  -4.215  0.00  0.00    -0.449 OA
BRANCH  15  17
ATOM     16  C   UNL     1       5.920   7.471  -4.062  0.00  0.00    +0.051 C 
ATOM     17  C   UNL     1       4.773   6.893  -4.615  0.00  0.00    +0.209 C 
ENDBRANCH  15  17
ENDBRANCH  13  15
ENDBRANCH  11  13
ENDBRANCH  10  11
ENDBRANCH   1  10
BRANCH   1  18
ATOM     18  C   UNL     1       1.419   4.475  -6.102  0.00  0.00    +0.048 C 
BRANCH  18  19
ATOM     19  C   UNL     1       2.398   4.830  -7.158  0.00  0.00    -0.020 A 
ATOM     20  C   UNL     1       2.620   3.954  -8.213  0.00  0.00    -0.004 A 
ATOM     21  C   UNL     1       3.159   4.505  -9.365  0.00  0.00    -0.000 A 
ATOM     22  C   UNL     1       3.812   5.714  -9.348  0.00  0.00    -0.000 A 
ATOM     23  C   UNL     1       3.479   6.612  -8.347  0.00  0.00    -0.000 A 
ATOM     24  C   UNL     1       2.646   6.188  -7.318  0.00  0.00    -0.004 A 
BRANCH  22  25
ATOM     25  C   UNL     1       5.065   5.953 -10.080  0.00  0.00    -0.000 A 
ATOM     26  C   UNL     1       5.145   6.894 -11.091  0.00  0.00    -0.000 A 
ATOM     27  C   UNL     1       6.242   7.691 -11.230  0.00  0.00    +0.000 A 
ATOM     28  C   UNL     1       7.388   7.476 -10.474  0.00  0.00    +0.000 A 
ATOM     29  C   UNL     1       7.435   6.320  -9.706  0.00  0.00    +0.000 A 
ATOM     30  C   UNL     1       6.271   5.589  -9.499  0.00  0.00    -0.000 A 
ENDBRANCH  22  25
ENDBRANCH  18  19
ENDBRANCH   1  18
TORSDOF 12
ENDMDL
MODEL 4
REMARK VINA RESULT:      -8.0      2.068      4.454
REMARK  Name = 
REMARK  12 active torsions:
REMARK  status: ('A' for Active; 'I' for Inactive)
REMARK    1  A    between atoms: C_2  and  O_3
REMARK    2  A    between atoms: O_3  and  C_4
REMARK    3  A    between atoms: C_4  and  C_6
REMARK    4  A    between atoms: C_6  and  C_8
REMARK    5  A    between atoms: C_8  and  C_9
REMARK    6  A    between atoms: C_9  and  C_10
REMARK    7  A    between atoms: C_9  and  N_23
REMARK    8  A    between atoms: C_10  and  C_11
REMARK    9  A    between atoms: C_14  and  C_15
REMARK   10  A    between atoms: C_24  and  C_26
REMARK   11  A    between atoms: C_26  and  C_27
REMARK   12  A    between atoms: C_27  and  C_28
REMARK                            x       y       z     vdW  Elec       q    Type
REMARK                         _______ _______ _______ _____ _____    ______ ____
ROOT
ATOM      1  C   UNL     1       1.815   5.991  -4.526  0.00  0.00    +0.100 C 
ENDROOT
BRANCH   1   2
ATOM      2  N   UNL     1       2.980   6.930  -3.967  0.00  0.00    -0.207 NA
ATOM      3  C   UNL     1       3.944   6.407  -3.138  0.00  0.00    +0.242 C 
ATOM      4  O   UNL     1       4.385   5.294  -3.505  0.00  0.00    -0.273 OA
BRANCH   3   5
ATOM      5  C   UNL     1       4.589   7.264  -2.095  0.00  0.00    +0.099 C 
BRANCH   5   6
ATOM      6  C   UNL     1       3.535   7.919  -1.245  0.00  0.00    +0.124 C 
BRANCH   6   7
ATOM      7  C   UNL     1       3.526   7.124   0.026  0.00  0.00    +0.365 C 
ATOM      8  O   UNL     1       4.394   6.054   0.193  0.00  0.00    -0.246 OA
ATOM      9  O   UNL     1       2.367   6.970   0.520  0.00  0.00    -0.246 OA
ENDBRANCH   6   7
ENDBRANCH   5   6
ENDBRANCH   3   5
ENDBRANCH   1   2
BRANCH   1  10
ATOM     10  C   UNL     1       0.607   6.528  -3.497  0.00  0.00    +0.033 C 
BRANCH  10  11
ATOM     11  C   UNL     1       0.055   4.991  -3.184  0.00  0.00    +0.101 C 
ATOM     12  C   UNL     1       0.122   5.240  -1.541  0.00  0.00    +0.012 C 
BRANCH  11  13
ATOM     13  C   UNL     1      -1.509   5.429  -3.290  0.00  0.00    +0.316 C 
ATOM     14  O   UNL     1      -2.332   4.786  -2.664  0.00  0.00    -0.250 OA
BRANCH  13  15
ATOM     15  O   UNL     1      -1.779   6.260  -4.378  0.00  0.00    -0.449 OA
BRANCH  15  17
ATOM     16  C   UNL     1      -1.641   5.355  -6.553  0.00  0.00    +0.051 C 
ATOM     17  C   UNL     1      -2.459   5.673  -5.463  0.00  0.00    +0.209 C 
ENDBRANCH  15  17
ENDBRANCH  13  15
ENDBRANCH  11  13
ENDBRANCH  10  11
ENDBRANCH   1  10
BRANCH   1  18
ATOM     18  C   UNL     1       1.412   7.123  -5.689  0.00  0.00    +0.048 C 
BRANCH  18  19
ATOM     19  C   UNL     1       2.402   6.823  -6.751  0.00  0.00    -0.020 A 
ATOM     20  C   UNL     1       3.033   5.584  -6.775  0.00  0.00    -0.004 A 
ATOM     21  C   UNL     1       3.565   5.190  -7.992  0.00  0.00    -0.000 A 
ATOM     22  C   UNL     1       3.831   6.096  -8.990  0.00  0.00    -0.000 A 
ATOM     23  C   UNL     1       3.098   7.272  -9.003  0.00  0.00    -0.000 A 
ATOM     24  C   UNL     1       2.271   7.557  -7.924  0.00  0.00    -0.004 A 
BRANCH  22  25
ATOM     25  C   UNL     1       5.061   6.058  -9.794  0.00  0.00    -0.000 A 
ATOM     26  C   UNL     1       5.268   6.937 -10.843  0.00  0.00    -0.000 A 
ATOM     27  C   UNL     1       6.492   7.491 -11.070  0.00  0.00    +0.000 A 
ATOM     28  C   UNL     1       7.614   7.070 -10.367  0.00  0.00    +0.000 A 
ATOM     29  C   UNL     1       7.474   5.948  -9.559  0.00  0.00    +0.000 A 
ATOM     30  C   UNL     1       6.202   5.473  -9.264  0.00  0.00    -0.000 A 
ENDBRANCH  22  25
ENDBRANCH  18  19
ENDBRANCH   1  18
TORSDOF 12
ENDMDL
MODEL 5
REMARK VINA RESULT:      -7.7      2.454      7.260
REMARK  Name = 
REMARK  12 active torsions:
REMARK  status: ('A' for Active; 'I' for Inactive)
REMARK    1  A    between atoms: C_2  and  O_3
REMARK    2  A    between atoms: O_3  and  C_4
REMARK    3  A    between atoms: C_4  and  C_6
REMARK    4  A    between atoms: C_6  and  C_8
REMARK    5  A    between atoms: C_8  and  C_9
REMARK    6  A    between atoms: C_9  and  C_10
REMARK    7  A    between atoms: C_9  and  N_23
REMARK    8  A    between atoms: C_10  and  C_11
REMARK    9  A    between atoms: C_14  and  C_15
REMARK   10  A    between atoms: C_24  and  C_26
REMARK   11  A    between atoms: C_26  and  C_27
REMARK   12  A    between atoms: C_27  and  C_28
REMARK                            x       y       z     vdW  Elec       q    Type
REMARK                         _______ _______ _______ _____ _____    ______ ____
ROOT
ATOM      1  C   UNL     1       3.614   6.004  -8.307  0.00  0.00    +0.100 C 
ENDROOT
BRANCH   1   2
ATOM      2  N   UNL     1       4.106   5.676  -6.823  0.00  0.00    -0.207 NA
ATOM      3  C   UNL     1       4.164   6.678  -5.883  0.00  0.00    +0.242 C 
ATOM      4  O   UNL     1       3.169   7.436  -5.881  0.00  0.00    -0.273 OA
BRANCH   3   5
ATOM      5  C   UNL     1       5.185   6.628  -4.789  0.00  0.00    +0.099 C 
BRANCH   5   6
ATOM      6  C   UNL     1       4.957   5.416  -3.929  0.00  0.00    +0.124 C 
BRANCH   6   7
ATOM      7  C   UNL     1       3.975   5.870  -2.890  0.00  0.00    +0.365 C 
ATOM      8  O   UNL     1       4.402   6.189  -1.609  0.00  0.00    -0.246 OA
ATOM      9  O   UNL     1       2.853   5.281  -2.961  0.00  0.00    -0.246 OA
ENDBRANCH   6   7
ENDBRANCH   5   6
ENDBRANCH   3   5
ENDBRANCH   1   2
BRANCH   1  10
ATOM     10  C   UNL     1       4.877   5.253  -9.113  0.00  0.00    +0.033 C 
BRANCH  10  11
ATOM     11  C   UNL     1       4.198   5.500 -10.610  0.00  0.00    +0.101 C 
ATOM     12  C   UNL     1       4.252   7.151 -10.427  0.00  0.00    +0.012 C 
BRANCH  11  13
ATOM     13  C   UNL     1       5.633   5.435 -11.375  0.00  0.00    +0.316 C 
ATOM     14  O   UNL     1       5.683   4.887 -12.461  0.00  0.00    -0.250 OA
BRANCH  13  15
ATOM     15  O   UNL     1       6.720   5.684 -10.536  0.00  0.00    -0.449 OA
BRANCH  15  17
ATOM     16  C   UNL     1       8.749   5.799 -11.735  0.00  0.00    +0.051 C 
ATOM     17  C   UNL     1       7.744   6.499 -11.059  0.00  0.00    +0.209 C 
ENDBRANCH  15  17
ENDBRANCH  13  15
ENDBRANCH  11  13
ENDBRANCH  10  11
ENDBRANCH   1  10
BRANCH   1  18
ATOM     18  C   UNL     1       2.683   4.616  -8.344  0.00  0.00    +0.048 C 
BRANCH  18  19
ATOM     19  C   UNL     1       1.484   5.043  -7.583  0.00  0.00    -0.020 A 
ATOM     20  C   UNL     1       0.388   5.563  -8.261  0.00  0.00    -0.004 A 
ATOM     21  C   UNL     1      -0.827   5.507  -7.596  0.00  0.00    -0.000 A 
ATOM     22  C   UNL     1      -0.896   5.345  -6.233  0.00  0.00    -0.000 A 
ATOM     23  C   UNL     1       0.166   4.715  -5.605  0.00  0.00    -0.000 A 
ATOM     24  C   UNL     1       1.312   4.442  -6.342  0.00  0.00    -0.004 A 
BRANCH  22  25
ATOM     25  C   UNL     1      -1.825   6.107  -5.386  0.00  0.00    -0.000 A 
ATOM     26  C   UNL     1      -2.710   5.475  -4.530  0.00  0.00    -0.000 A 
ATOM     27  C   UNL     1      -2.964   5.968  -3.285  0.00  0.00    +0.000 A 
ATOM     28  C   UNL     1      -2.480   7.210  -2.891  0.00  0.00    +0.000 A 
ATOM     29  C   UNL     1      -1.883   7.999  -3.866  0.00  0.00    +0.000 A 
ATOM     30  C   UNL     1      -1.541   7.432  -5.088  0.00  0.00    -0.000 A 
ENDBRANCH  22  25
ENDBRANCH  18  19
ENDBRANCH   1  18
TORSDOF 12
ENDMDL
MODEL 6
REMARK VINA RESULT:      -7.6      1.819      2.923
REMARK  Name = 
REMARK  12 active torsions:
REMARK  status: ('A' for Active; 'I' for Inactive)
REMARK    1  A    between atoms: C_2  and  O_3
REMARK    2  A    between atoms: O_3  and  C_4
REMARK    3  A    between atoms: C_4  and  C_6
REMARK    4  A    between atoms: C_6  and  C_8
REMARK    5  A    between atoms: C_8  and  C_9
REMARK    6  A    between atoms: C_9  and  C_10
REMARK    7  A    between atoms: C_9  and  N_23
REMARK    8  A    between atoms: C_10  and  C_11
REMARK    9  A    between atoms: C_14  and  C_15
REMARK   10  A    between atoms: C_24  and  C_26
REMARK   11  A    between atoms: C_26  and  C_27
REMARK   12  A    between atoms: C_27  and  C_28
REMARK                            x       y       z     vdW  Elec       q    Type
REMARK                         _______ _______ _______ _____ _____    ______ ____
ROOT
ATOM      1  C   UNL     1       2.240   5.578  -7.081  0.00  0.00    +0.100 C 
ENDROOT
BRANCH   1   2
ATOM      2  N   UNL     1       0.863   4.806  -6.839  0.00  0.00    -0.207 NA
ATOM      3  C   UNL     1      -0.317   5.347  -7.294  0.00  0.00    +0.242 C 
ATOM      4  O   UNL     1      -0.250   5.817  -8.452  0.00  0.00    -0.273 OA
BRANCH   3   5
ATOM      5  C   UNL     1      -1.598   5.089  -6.564  0.00  0.00    +0.099 C 
BRANCH   5   6
ATOM      6  C   UNL     1      -2.132   6.375  -5.997  0.00  0.00    +0.124 C 
BRANCH   6   7
ATOM      7  C   UNL     1      -2.233   6.124  -4.522  0.00  0.00    +0.365 C 
ATOM      8  O   UNL     1      -2.670   7.124  -3.665  0.00  0.00    -0.246 OA
ATOM      9  O   UNL     1      -1.309   5.381  -4.069  0.00  0.00    -0.246 OA
ENDBRANCH   6   7
ENDBRANCH   5   6
ENDBRANCH   3   5
ENDBRANCH   1   2
BRANCH   1  10
ATOM     10  C   UNL     1       2.975   5.145  -5.639  0.00  0.00    +0.033 C 
BRANCH  10  11
ATOM     11  C   UNL     1       3.421   6.706  -5.283  0.00  0.00    +0.101 C 
ATOM     12  C   UNL     1       2.064   6.942  -4.351  0.00  0.00    +0.012 C 
BRANCH  11  13
ATOM     13  C   UNL     1       4.338   6.255  -4.016  0.00  0.00    +0.316 C 
ATOM     14  O   UNL     1       5.410   6.809  -3.854  0.00  0.00    -0.250 OA
BRANCH  13  15
ATOM     15  O   UNL     1       3.964   5.025  -3.471  0.00  0.00    -0.449 OA
BRANCH  15  17
ATOM     16  C   UNL     1       2.942   4.974  -1.346  0.00  0.00    +0.051 C 
ATOM     17  C   UNL     1       4.128   4.879  -2.080  0.00  0.00    +0.209 C 
ENDBRANCH  15  17
ENDBRANCH  13  15
ENDBRANCH  11  13
ENDBRANCH  10  11
ENDBRANCH   1  10
BRANCH   1  18
ATOM     18  C   UNL     1       2.882   4.256  -7.878  0.00  0.00    +0.048 C 
BRANCH  18  19
ATOM     19  C   UNL     1       3.874   4.901  -8.771  0.00  0.00    -0.020 A 
ATOM     20  C   UNL     1       3.453   5.846  -9.699  0.00  0.00    -0.004 A 
ATOM     21  C   UNL     1       4.420   6.726 -10.159  0.00  0.00    -0.000 A 
ATOM     22  C   UNL     1       5.760   6.448 -10.048  0.00  0.00    -0.000 A 
ATOM     23  C   UNL     1       6.158   5.591  -9.034  0.00  0.00    -0.000 A 
ATOM     24  C   UNL     1       5.183   4.923  -8.303  0.00  0.00    -0.004 A 
BRANCH  22  25
ATOM     25  C   UNL     1       6.720   6.700 -11.133  0.00  0.00    -0.000 A 
ATOM     26  C   UNL     1       7.963   6.092 -11.157  0.00  0.00    -0.000 A 
ATOM     27  C   UNL     1       8.504   5.634 -12.320  0.00  0.00    +0.000 A 
ATOM     28  C   UNL     1       7.912   5.910 -13.546  0.00  0.00    +0.000 A 
ATOM     29  C   UNL     1       6.854   6.811 -13.554  0.00  0.00    +0.000 A 
ATOM     30  C   UNL     1       6.258   7.174 -12.352  0.00  0.00    -0.000 A 
ENDBRANCH  22  25
ENDBRANCH  18  19
ENDBRANCH   1  18
TORSDOF 12
ENDMDL
MODEL 7
REMARK VINA RESULT:      -7.6      3.105      5.682
REMARK  Name = 
REMARK  12 active torsions:
REMARK  status: ('A' for Active; 'I' for Inactive)
REMARK    1  A    between atoms: C_2  and  O_3
REMARK    2  A    between atoms: O_3  and  C_4
REMARK    3  A    between atoms: C_4  and  C_6
REMARK    4  A    between atoms: C_6  and  C_8
REMARK    5  A    between atoms: C_8  and  C_9
REMARK    6  A    between atoms: C_9  and  C_10
REMARK    7  A    between atoms: C_9  and  N_23
REMARK    8  A    between atoms: C_10  and  C_11
REMARK    9  A    between atoms: C_14  and  C_15
REMARK   10  A    between atoms: C_24  and  C_26
REMARK   11  A    between atoms: C_26  and  C_27
REMARK   12  A    between atoms: C_27  and  C_28
REMARK                            x       y       z     vdW  Elec       q    Type
REMARK                         _______ _______ _______ _____ _____    ______ ____
ROOT
ATOM      1  C   UNL     1       0.780   5.888  -7.219  0.00  0.00    +0.100 C 
ENDROOT
BRANCH   1   2
ATOM      2  N   UNL     1       0.474   5.529  -8.745  0.00  0.00    -0.207 NA
ATOM      3  C   UNL     1       0.469   6.522  -9.696  0.00  0.00    +0.242 C 
ATOM      4  O   UNL     1       1.418   7.332  -9.595  0.00  0.00    -0.273 OA
BRANCH   3   5
ATOM      5  C   UNL     1      -0.420   6.415 -10.895  0.00  0.00    +0.099 C 
BRANCH   5   6
ATOM      6  C   UNL     1       0.113   7.276 -12.007  0.00  0.00    +0.124 C 
BRANCH   6   7
ATOM      7  C   UNL     1       0.968   6.353 -12.823  0.00  0.00    +0.365 C 
ATOM      8  O   UNL     1       2.341   6.309 -12.630  0.00  0.00    -0.246 OA
ATOM      9  O   UNL     1       0.581   6.234 -14.026  0.00  0.00    -0.246 OA
ENDBRANCH   6   7
ENDBRANCH   5   6
ENDBRANCH   3   5
ENDBRANCH   1   2
BRANCH   1  10
ATOM     10  C   UNL     1      -0.535   5.091  -6.553  0.00  0.00    +0.033 C 
BRANCH  10  11
ATOM     11  C   UNL     1      -1.074   6.445  -5.751  0.00  0.00    +0.101 C 
ATOM     12  C   UNL     1      -2.661   6.089  -6.100  0.00  0.00    +0.012 C 
BRANCH  11  13
ATOM     13  C   UNL     1      -1.115   5.690  -4.310  0.00  0.00    +0.316 C 
ATOM     14  O   UNL     1      -0.069   5.265  -3.852  0.00  0.00    -0.250 OA
BRANCH  13  15
ATOM     15  O   UNL     1      -2.395   5.282  -3.933  0.00  0.00    -0.449 OA
BRANCH  15  17
ATOM     16  C   UNL     1      -3.449   6.618  -2.299  0.00  0.00    +0.051 C 
ATOM     17  C   UNL     1      -2.733   5.449  -2.576  0.00  0.00    +0.209 C 
ENDBRANCH  15  17
ENDBRANCH  13  15
ENDBRANCH  11  13
ENDBRANCH  10  11
ENDBRANCH   1  10
BRANCH   1  18
ATOM     18  C   UNL     1       1.756   4.540  -7.060  0.00  0.00    +0.048 C 
BRANCH  18  19
ATOM     19  C   UNL     1       2.988   4.982  -7.756  0.00  0.00    -0.020 A 
ATOM     20  C   UNL     1       3.993   5.621  -7.040  0.00  0.00    -0.004 A 
ATOM     21  C   UNL     1       5.260   5.591  -7.601  0.00  0.00    -0.000 A 
ATOM     22  C   UNL     1       5.451   5.330  -8.936  0.00  0.00    -0.000 A 
ATOM     23  C   UNL     1       4.482   4.587  -9.592  0.00  0.00    -0.000 A 
ATOM     24  C   UNL     1       3.296   4.300  -8.927  0.00  0.00    -0.004 A 
BRANCH  22  25
ATOM     25  C   UNL     1       6.403   6.081  -9.767  0.00  0.00    -0.000 A 
ATOM     26  C   UNL     1       7.670   5.595 -10.038  0.00  0.00    -0.000 A 
ATOM     27  C   UNL     1       8.233   5.736 -11.271  0.00  0.00    +0.000 A 
ATOM     28  C   UNL     1       7.633   6.518 -12.250  0.00  0.00    +0.000 A 
ATOM     29  C   UNL     1       6.539   7.286 -11.870  0.00  0.00    +0.000 A 
ATOM     30  C   UNL     1       5.925   7.041 -10.647  0.00  0.00    -0.000 A 
ENDBRANCH  22  25
ENDBRANCH  18  19
ENDBRANCH   1  18
TORSDOF 12
ENDMDL
MODEL 8
REMARK VINA RESULT:      -7.6      2.090      4.430
REMARK  Name = 
REMARK  12 active torsions:
REMARK  status: ('A' for Active; 'I' for Inactive)
REMARK    1  A    between atoms: C_2  and  O_3
REMARK    2  A    between atoms: O_3  and  C_4
REMARK    3  A    between atoms: C_4  and  C_6
REMARK    4  A    between atoms: C_6  and  C_8
REMARK    5  A    between atoms: C_8  and  C_9
REMARK    6  A    between atoms: C_9  and  C_10
REMARK    7  A    between atoms: C_9  and  N_23
REMARK    8  A    between atoms: C_10  and  C_11
REMARK    9  A    between atoms: C_14  and  C_15
REMARK   10  A    between atoms: C_24  and  C_26
REMARK   11  A    between atoms: C_26  and  C_27
REMARK   12  A    between atoms: C_27  and  C_28
REMARK                            x       y       z     vdW  Elec       q    Type
REMARK                         _______ _______ _______ _____ _____    ______ ____
ROOT
ATOM      1  C   UNL     1       3.144   5.645  -5.376  0.00  0.00    +0.100 C 
ENDROOT
BRANCH   1   2
ATOM      2  N   UNL     1       2.834   6.793  -4.311  0.00  0.00    -0.207 NA
ATOM      3  C   UNL     1       3.869   7.440  -3.678  0.00  0.00    +0.242 C 
ATOM      4  O   UNL     1       4.813   7.758  -4.436  0.00  0.00    -0.273 OA
BRANCH   3   5
ATOM      5  C   UNL     1       3.694   7.966  -2.288  0.00  0.00    +0.099 C 
BRANCH   5   6
ATOM      6  C   UNL     1       4.627   7.254  -1.348  0.00  0.00    +0.124 C 
BRANCH   6   7
ATOM      7  C   UNL     1       3.726   6.475  -0.438  0.00  0.00    +0.365 C 
ATOM      8  O   UNL     1       3.254   7.039   0.738  0.00  0.00    -0.246 OA
ATOM      9  O   UNL     1       4.013   5.240  -0.375  0.00  0.00    -0.246 OA
ENDBRANCH   6   7
ENDBRANCH   5   6
ENDBRANCH   3   5
ENDBRANCH   1   2
BRANCH   1  10
ATOM     10  C   UNL     1       1.723   4.782  -5.169  0.00  0.00    +0.033 C 
BRANCH  10  11
ATOM     11  C   UNL     1       0.763   6.128  -5.343  0.00  0.00    +0.101 C 
ATOM     12  C   UNL     1      -0.259   5.335  -6.387  0.00  0.00    +0.012 C 
BRANCH  11  13
ATOM     13  C   UNL     1      -0.134   5.774  -4.032  0.00  0.00    +0.316 C 
ATOM     14  O   UNL     1       0.325   5.000  -3.211  0.00  0.00    -0.250 OA
BRANCH  13  15
ATOM     15  O   UNL     1      -1.483   6.104  -4.178  0.00  0.00    -0.449 OA
BRANCH  15  17
ATOM     16  C   UNL     1      -2.002   8.382  -4.499  0.00  0.00    +0.051 C 
ATOM     17  C   UNL     1      -1.898   7.318  -3.597  0.00  0.00    +0.209 C 
ENDBRANCH  15  17
ENDBRANCH  13  15
ENDBRANCH  11  13
ENDBRANCH  10  11
ENDBRANCH   1  10
BRANCH   1  18
ATOM     18  C   UNL     1       2.480   6.560  -6.609  0.00  0.00    +0.048 C 
BRANCH  18  19
ATOM     19  C   UNL     1       3.560   6.516  -7.624  0.00  0.00    -0.020 A 
ATOM     20  C   UNL     1       4.663   5.695  -7.422  0.00  0.00    -0.004 A 
ATOM     21  C   UNL     1       5.379   5.341  -8.554  0.00  0.00    -0.000 A 
ATOM     22  C   UNL     1       5.282   6.057  -9.723  0.00  0.00    -0.000 A 
ATOM     23  C   UNL     1       4.116   6.771  -9.945  0.00  0.00    -0.000 A 
ATOM     24  C   UNL     1       3.189   6.875  -8.915  0.00  0.00    -0.004 A 
BRANCH  22  25
ATOM     25  C   UNL     1       6.450   6.399 -10.548  0.00  0.00    -0.000 A 
ATOM     26  C   UNL     1       7.663   5.750 -10.392  0.00  0.00    -0.000 A 
ATOM     27  C   UNL     1       8.428   5.413 -11.468  0.00  0.00    +0.000 A 
ATOM     28  C   UNL     1       8.107   5.855 -12.745  0.00  0.00    +0.000 A 
ATOM     29  C   UNL     1       7.087   6.791 -12.857  0.00  0.00    +0.000 A 
ATOM     30  C   UNL     1       6.258   7.032 -11.767  0.00  0.00    -0.000 A 
ENDBRANCH  22  25
ENDBRANCH  18  19
ENDBRANCH   1  18
TORSDOF 12
ENDMDL
MODEL 9
REMARK VINA RESULT:      -7.5      2.267      4.745
REMARK  Name = 
REMARK  12 active torsions:
REMARK  status: ('A' for Active; 'I' for Inactive)
REMARK    1  A    between atoms: C_2  and  O_3
REMARK    2  A    between atoms: O_3  and  C_4
REMARK    3  A    between atoms: C_4  and  C_6
REMARK    4  A    between atoms: C_6  and  C_8
REMARK    5  A    between atoms: C_8  and  C_9
REMARK    6  A    between atoms: C_9  and  C_10
REMARK    7  A    between atoms: C_9  and  N_23
REMARK    8  A    between atoms: C_10  and  C_11
REMARK    9  A    between atoms: C_14  and  C_15
REMARK   10  A    between atoms: C_24  and  C_26
REMARK   11  A    between atoms: C_26  and  C_27
REMARK   12  A    between atoms: C_27  and  C_28
REMARK                            x       y       z     vdW  Elec       q    Type
REMARK                         _______ _______ _______ _____ _____    ______ ____
ROOT
ATOM      1  C   UNL     1       2.226   5.719  -4.999  0.00  0.00    +0.100 C 
ENDROOT
BRANCH   1   2
ATOM      2  N   UNL     1       2.856   5.911  -3.545  0.00  0.00    -0.207 NA
ATOM      3  C   UNL     1       3.693   4.951  -3.027  0.00  0.00    +0.242 C 
ATOM      4  O   UNL     1       4.538   4.517  -3.841  0.00  0.00    -0.273 OA
BRANCH   3   5
ATOM      5  C   UNL     1       3.751   4.717  -1.550  0.00  0.00    +0.099 C 
BRANCH   5   6
ATOM      6  C   UNL     1       3.168   5.895  -0.820  0.00  0.00    +0.124 C 
BRANCH   6   7
ATOM      7  C   UNL     1       4.357   6.621  -0.264  0.00  0.00    +0.365 C 
ATOM      8  O   UNL     1       4.622   6.597   1.098  0.00  0.00    -0.246 OA
ATOM      9  O   UNL     1       4.599   7.721  -0.848  0.00  0.00    -0.246 OA
ENDBRANCH   6   7
ENDBRANCH   5   6
ENDBRANCH   3   5
ENDBRANCH   1   2
BRANCH   1  10
ATOM     10  C   UNL     1       0.722   6.375  -4.660  0.00  0.00    +0.033 C 
BRANCH  10  11
ATOM     11  C   UNL     1       0.105   5.986  -6.154  0.00  0.00    +0.101 C 
ATOM     12  C   UNL     1       0.669   4.426  -6.045  0.00  0.00    +0.012 C 
BRANCH  11  13
ATOM     13  C   UNL     1      -1.360   5.608  -5.556  0.00  0.00    +0.316 C 
ATOM     14  O   UNL     1      -2.301   5.554  -6.327  0.00  0.00    -0.250 OA
BRANCH  13  15
ATOM     15  O   UNL     1      -1.448   5.754  -4.170  0.00  0.00    -0.449 OA
BRANCH  15  17
ATOM     16  C   UNL     1      -3.295   6.195  -2.771  0.00  0.00    +0.051 C 
ATOM     17  C   UNL     1      -2.617   5.260  -3.559  0.00  0.00    +0.209 C 
ENDBRANCH  15  17
ENDBRANCH  13  15
ENDBRANCH  11  13
ENDBRANCH  10  11
ENDBRANCH   1  10
BRANCH   1  18
ATOM     18  C   UNL     1       2.827   7.198  -5.495  0.00  0.00    +0.048 C 
BRANCH  18  19
ATOM     19  C   UNL     1       3.538   6.826  -6.742  0.00  0.00    -0.020 A 
ATOM     20  C   UNL     1       4.436   5.765  -6.732  0.00  0.00    -0.004 A 
ATOM     21  C   UNL     1       4.704   5.177  -7.958  0.00  0.00    -0.000 A 
ATOM     22  C   UNL     1       4.449   5.828  -9.141  0.00  0.00    -0.000 A 
ATOM     23  C   UNL     1       3.462   6.801  -9.140  0.00  0.00    -0.000 A 
ATOM     24  C   UNL     1       2.912   7.194  -7.927  0.00  0.00    -0.004 A 
BRANCH  22  25
ATOM     25  C   UNL     1       5.384   5.816 -10.275  0.00  0.00    -0.000 A 
ATOM     26  C   UNL     1       4.944   5.637 -11.575  0.00  0.00    -0.000 A 
ATOM     27  C   UNL     1       5.483   6.345 -12.608  0.00  0.00    +0.000 A 
ATOM     28  C   UNL     1       6.604   7.144 -12.424  0.00  0.00    +0.000 A 
ATOM     29  C   UNL     1       7.255   7.055 -11.200  0.00  0.00    +0.000 A 
ATOM     30  C   UNL     1       6.628   6.416 -10.137  0.00  0.00    -0.000 A 
ENDBRANCH  22  25
ENDBRANCH  18  19
ENDBRANCH   1  18
TORSDOF 12
ENDMDL
