MODEL 1
REMARK VINA RESULT:      -8.1      0.000      0.000
REMARK  Name = 
REMARK  4 active torsions:
REMARK  status: ('A' for Active; 'I' for Inactive)
REMARK    1  A    between atoms: O_2  and  C_3
REMARK    2  A    between atoms: C_4  and  N_5
REMARK    3  A    between atoms: C_18  and  C_19
REMARK    4  A    between atoms: N_23  and  C_24
REMARK                            x       y       z     vdW  Elec       q    Type
REMARK                         _______ _______ _______ _____ _____    ______ ____
ROOT
ATOM      1  C   UNL     1       2.667   5.905 -10.417  0.00  0.00    +0.170 A 
ATOM      2  C   UNL     1       3.520   6.326 -11.433  0.00  0.00    +0.099 A 
ATOM      3  C   UNL     1       4.813   6.715 -11.095  0.00  0.00    +0.060 A 
ATOM      4  C   UNL     1       5.692   6.819 -12.170  0.00  0.00    +0.205 A 
ATOM      5  C   UNL     1       5.492   6.130 -13.363  0.00  0.00    +0.136 A 
ATOM      6  C   UNL     1       4.160   5.820 -13.620  0.00  0.00    +0.086 A 
ATOM      7  O   UNL     1       6.819   7.282 -11.931  0.00  0.00    -0.286 OA
ATOM      8  C   UNL     1       5.259   6.471  -9.797  0.00  0.00    +0.036 A 
ATOM      9  C   UNL     1       4.555   5.600  -8.979  0.00  0.00    +0.157 A 
ATOM     10  F   UNL     1       5.100   4.672  -8.180  0.00  0.00    -0.203 F 
ATOM     11  N   UNL     1       3.171   6.063 -12.718  0.00  0.00    -0.325 N 
ATOM     12  C   UNL     1       3.178   5.536  -9.175  0.00  0.00    +0.112 A 
ENDROOT
BRANCH  12  13
ATOM     13  N   UNL     1       2.341   5.389  -8.044  0.00  0.00    -0.300 N 
ATOM     14  C   UNL     1       2.934   4.920  -6.796  0.00  0.00    +0.108 C 
ATOM     15  C   UNL     1       2.648   6.102  -5.694  0.00  0.00    +0.093 C 
ATOM     16  C   UNL     1       4.124   5.911  -4.996  0.00  0.00    +0.021 C 
ATOM     17  N   UNL     1       3.182   7.237  -6.644  0.00  0.00    -0.216 NA
ATOM     18  C   UNL     1       1.920   7.667  -7.243  0.00  0.00    +0.110 C 
ATOM     19  C   UNL     1       1.315   6.418  -7.874  0.00  0.00    +0.110 C 
ENDBRANCH  12  13
BRANCH   5  20
ATOM     20  C   UNL     1       6.595   5.386 -13.997  0.00  0.00    +0.392 C 
ATOM     21  O   UNL     1       7.434   4.677 -13.126  0.00  0.00    -0.240 OA
ATOM     22  O   UNL     1       7.215   6.041 -14.889  0.00  0.00    -0.240 OA
ENDBRANCH   5  20
BRANCH  11  23
ATOM     23  C   UNL     1       1.857   6.045 -13.100  0.00  0.00    +0.086 C 
ATOM     24  C   UNL     1       1.704   4.786 -14.032  0.00  0.00    +0.024 C 
ATOM     25  C   UNL     1       0.843   5.933 -13.994  0.00  0.00    +0.024 C 
ENDBRANCH  11  23
BRANCH   1  27
ATOM     26  C   UNL     1       1.089   4.168 -10.421  0.00  0.00    +0.253 C 
ATOM     27  O   UNL     1       1.435   5.355 -10.771  0.00  0.00    -0.469 OA
ENDBRANCH   1  27
TORSDOF 4
ENDMDL
MODEL 2
REMARK VINA RESULT:      -7.9      4.527      9.175
REMARK  Name = 
REMARK  4 active torsions:
REMARK  status: ('A' for Active; 'I' for Inactive)
REMARK    1  A    between atoms: O_2  and  C_3
REMARK    2  A    between atoms: C_4  and  N_5
REMARK    3  A    between atoms: C_18  and  C_19
REMARK    4  A    between atoms: N_23  and  C_24
REMARK                            x       y       z     vdW  Elec       q    Type
REMARK                         _______ _______ _______ _____ _____    ______ ____
ROOT
ATOM      1  C   UNL     1       1.744   5.999  -5.367  0.00  0.00    +0.170 A 
ATOM      2  C   UNL     1       0.936   6.510  -4.356  0.00  0.00    +0.099 A 
ATOM      3  C   UNL     1      -0.357   6.913  -4.680  0.00  0.00    +0.060 A 
ATOM      4  C   UNL     1      -1.198   7.112  -3.588  0.00  0.00    +0.205 A 
ATOM      5  C   UNL     1      -0.977   6.497  -2.359  0.00  0.00    +0.136 A 
ATOM      6  C   UNL     1       0.353   6.168  -2.122  0.00  0.00    +0.086 A 
ATOM      7  O   UNL     1      -2.319   7.591  -3.822  0.00  0.00    -0.286 OA
ATOM      8  C   UNL     1      -0.851   6.597  -5.944  0.00  0.00    +0.036 A 
ATOM      9  C   UNL     1      -0.197   5.654  -6.723  0.00  0.00    +0.157 A 
ATOM     10  F   UNL     1      -0.792   4.691  -7.443  0.00  0.00    -0.203 F 
ATOM     11  N   UNL     1       1.319   6.323  -3.068  0.00  0.00    -0.325 N 
ATOM     12  C   UNL     1       1.183   5.563  -6.566  0.00  0.00    +0.112 A 
ENDROOT
BRANCH  12  13
ATOM     13  N   UNL     1       1.979   5.319  -7.710  0.00  0.00    -0.300 N 
ATOM     14  C   UNL     1       1.319   4.888  -8.937  0.00  0.00    +0.108 C 
ATOM     15  C   UNL     1       1.692   6.019 -10.067  0.00  0.00    +0.093 C 
ATOM     16  C   UNL     1       0.191   5.958 -10.732  0.00  0.00    +0.021 C 
ATOM     17  N   UNL     1       1.288   7.215  -9.128  0.00  0.00    -0.216 NA
ATOM     18  C   UNL     1       2.598   7.533  -8.561  0.00  0.00    +0.110 C 
ATOM     19  C   UNL     1       3.094   6.242  -7.918  0.00  0.00    +0.110 C 
ENDBRANCH  12  13
BRANCH   5  20
ATOM     20  C   UNL     1      -2.078   5.829  -1.643  0.00  0.00    +0.392 C 
ATOM     21  O   UNL     1      -1.957   5.775  -0.247  0.00  0.00    -0.240 OA
ATOM     22  O   UNL     1      -2.450   4.735  -2.168  0.00  0.00    -0.240 OA
ENDBRANCH   5  20
BRANCH  11  23
ATOM     23  C   UNL     1       2.643   6.292  -2.726  0.00  0.00    +0.086 C 
ATOM     24  C   UNL     1       2.765   5.203  -1.596  0.00  0.00    +0.024 C 
ATOM     25  C   UNL     1       3.684   6.274  -1.855  0.00  0.00    +0.024 C 
ENDBRANCH  11  23
BRANCH   1  27
ATOM     26  C   UNL     1       3.209   4.181  -5.132  0.00  0.00    +0.253 C 
ATOM     27  O   UNL     1       2.972   5.439  -5.016  0.00  0.00    -0.469 OA
ENDBRANCH   1  27
TORSDOF 4
ENDMDL
MODEL 3
REMARK VINA RESULT:      -7.8      7.042     10.544
REMARK  Name = 
REMARK  4 active torsions:
REMARK  status: ('A' for Active; 'I' for Inactive)
REMARK    1  A    between atoms: O_2  and  C_3
REMARK    2  A    between atoms: C_4  and  N_5
REMARK    3  A    between atoms: C_18  and  C_19
REMARK    4  A    between atoms: N_23  and  C_24
REMARK                            x       y       z     vdW  Elec       q    Type
REMARK                         _______ _______ _______ _____ _____    ______ ____
ROOT
ATOM      1  C   UNL     1       0.673   6.108  -3.207  0.00  0.00    +0.170 A 
ATOM      2  C   UNL     1       0.086   6.118  -1.945  0.00  0.00    +0.099 A 
ATOM      3  C   UNL     1       0.896   6.358  -0.838  0.00  0.00    +0.060 A 
ATOM      4  C   UNL     1       0.209   6.661   0.334  0.00  0.00    +0.205 A 
ATOM      5  C   UNL     1      -1.082   7.183   0.325  0.00  0.00    +0.136 A 
ATOM      6  C   UNL     1      -1.816   6.855  -0.810  0.00  0.00    +0.086 A 
ATOM      7  O   UNL     1       0.884   6.760   1.372  0.00  0.00    -0.286 OA
ATOM      8  C   UNL     1       2.206   6.779  -1.057  0.00  0.00    +0.036 A 
ATOM      9  C   UNL     1       2.582   7.239  -2.310  0.00  0.00    +0.157 A 
ATOM     10  F   UNL     1       3.346   8.314  -2.548  0.00  0.00    -0.203 F 
ATOM     11  N   UNL     1      -1.267   6.191  -1.863  0.00  0.00    -0.325 N 
ATOM     12  C   UNL     1       1.932   6.672  -3.403  0.00  0.00    +0.112 A 
ENDROOT
BRANCH  12  13
ATOM     13  N   UNL     1       2.678   6.425  -4.580  0.00  0.00    -0.300 N 
ATOM     14  C   UNL     1       3.812   7.292  -4.879  0.00  0.00    +0.108 C 
ATOM     15  C   UNL     1       5.121   6.304  -4.958  0.00  0.00    +0.093 C 
ATOM     16  C   UNL     1       6.090   7.406  -4.218  0.00  0.00    +0.021 C 
ATOM     17  N   UNL     1       4.782   5.602  -3.591  0.00  0.00    -0.216 NA
ATOM     18  C   UNL     1       4.038   4.446  -4.088  0.00  0.00    +0.110 C 
ATOM     19  C   UNL     1       2.891   5.017  -4.915  0.00  0.00    +0.110 C 
ENDBRANCH  12  13
BRANCH   5  20
ATOM     20  C   UNL     1      -1.431   8.344   1.162  0.00  0.00    +0.392 C 
ATOM     21  O   UNL     1      -2.769   8.423   1.572  0.00  0.00    -0.240 OA
ATOM     22  O   UNL     1      -0.956   9.445   0.745  0.00  0.00    -0.240 OA
ENDBRANCH   5  20
BRANCH  11  23
ATOM     23  C   UNL     1      -2.060   5.611  -2.815  0.00  0.00    +0.086 C 
ATOM     24  C   UNL     1      -3.282   6.587  -3.001  0.00  0.00    +0.024 C 
ATOM     25  C   UNL     1      -3.242   5.192  -3.336  0.00  0.00    +0.024 C 
ENDBRANCH  11  23
BRANCH   1  27
ATOM     26  C   UNL     1      -0.269   7.011  -5.157  0.00  0.00    +0.253 C 
ATOM     27  O   UNL     1      -0.158   6.039  -4.324  0.00  0.00    -0.469 OA
ENDBRANCH   1  27
TORSDOF 4
ENDMDL
MODEL 4
REMARK VINA RESULT:      -7.6      5.626      9.733
REMARK  Name = 
REMARK  4 active torsions:
REMARK  status: ('A' for Active; 'I' for Inactive)
REMARK    1  A    between atoms: O_2  and  C_3
REMARK    2  A    between atoms: C_4  and  N_5
REMARK    3  A    between atoms: C_18  and  C_19
REMARK    4  A    between atoms: N_23  and  C_24
REMARK                            x       y       z     vdW  Elec       q    Type
REMARK                         _______ _______ _______ _____ _____    ______ ____
ROOT
ATOM      1  C   UNL     1       0.674   6.079  -3.988  0.00  0.00    +0.170 A 
ATOM      2  C   UNL     1       0.875   5.980  -2.614  0.00  0.00    +0.099 A 
ATOM      3  C   UNL     1       2.180   5.891  -2.139  0.00  0.00    +0.060 A 
ATOM      4  C   UNL     1       2.320   6.109  -0.771  0.00  0.00    +0.205 A 
ATOM      5  C   UNL     1       1.390   6.838  -0.036  0.00  0.00    +0.136 A 
ATOM      6  C   UNL     1       0.109   6.833  -0.581  0.00  0.00    +0.086 A 
ATOM      7  O   UNL     1       3.446   5.917  -0.284  0.00  0.00    -0.286 OA
ATOM      8  C   UNL     1       3.226   6.112  -3.033  0.00  0.00    +0.036 A 
ATOM      9  C   UNL     1       2.968   6.702  -4.262  0.00  0.00    +0.157 A 
ATOM     10  F   UNL     1       3.714   7.655  -4.839  0.00  0.00    -0.203 F 
ATOM     11  N   UNL     1      -0.163   6.269  -1.789  0.00  0.00    -0.325 N 
ATOM     12  C   UNL     1       1.724   6.443  -4.829  0.00  0.00    +0.112 A 
ENDROOT
BRANCH  12  13
ATOM     13  N   UNL     1       1.642   6.271  -6.231  0.00  0.00    -0.300 N 
ATOM     14  C   UNL     1       2.790   6.653  -7.046  0.00  0.00    +0.108 C 
ATOM     15  C   UNL     1       3.245   5.291  -7.842  0.00  0.00    +0.093 C 
ATOM     16  C   UNL     1       4.843   5.640  -7.679  0.00  0.00    +0.021 C 
ATOM     17  N   UNL     1       3.245   4.421  -6.531  0.00  0.00    -0.216 NA
ATOM     18  C   UNL     1       1.896   3.863  -6.609  0.00  0.00    +0.110 C 
ATOM     19  C   UNL     1       0.956   5.061  -6.685  0.00  0.00    +0.110 C 
ENDBRANCH  12  13
BRANCH   5  20
ATOM     20  C   UNL     1       1.826   7.887   0.902  0.00  0.00    +0.392 C 
ATOM     21  O   UNL     1       1.752   7.559   2.264  0.00  0.00    -0.240 OA
ATOM     22  O   UNL     1       1.384   9.044   0.628  0.00  0.00    -0.240 OA
ENDBRANCH   5  20
BRANCH  11  23
ATOM     23  C   UNL     1      -1.452   5.999  -2.159  0.00  0.00    +0.086 C 
ATOM     24  C   UNL     1      -2.318   7.174  -1.568  0.00  0.00    +0.024 C 
ATOM     25  C   UNL     1      -2.787   5.872  -1.947  0.00  0.00    +0.024 C 
ENDBRANCH  11  23
BRANCH   1  27
ATOM     26  C   UNL     1      -0.953   7.484  -4.928  0.00  0.00    +0.253 C 
ATOM     27  O   UNL     1      -0.614   6.340  -4.453  0.00  0.00    -0.469 OA
ENDBRANCH   1  27
TORSDOF 4
ENDMDL
MODEL 5
REMARK VINA RESULT:      -7.3      4.437      8.294
REMARK  Name = 
REMARK  4 active torsions:
REMARK  status: ('A' for Active; 'I' for Inactive)
REMARK    1  A    between atoms: O_2  and  C_3
REMARK    2  A    between atoms: C_4  and  N_5
REMARK    3  A    between atoms: C_18  and  C_19
REMARK    4  A    between atoms: N_23  and  C_24
REMARK                            x       y       z     vdW  Elec       q    Type
REMARK                         _______ _______ _______ _____ _____    ______ ____
ROOT
ATOM      1  C   UNL     1       0.796   5.643  -5.757  0.00  0.00    +0.170 A 
ATOM      2  C   UNL     1       1.170   5.430  -4.433  0.00  0.00    +0.099 A 
ATOM      3  C   UNL     1       2.524   5.287  -4.141  0.00  0.00    +0.060 A 
ATOM      4  C   UNL     1       2.844   5.390  -2.790  0.00  0.00    +0.205 A 
ATOM      5  C   UNL     1       2.032   6.067  -1.884  0.00  0.00    +0.136 A 
ATOM      6  C   UNL     1       0.692   6.121  -2.256  0.00  0.00    +0.086 A 
ATOM      7  O   UNL     1       4.019   5.147  -2.470  0.00  0.00    -0.286 OA
ATOM      8  C   UNL     1       3.449   5.569  -5.144  0.00  0.00    +0.036 A 
ATOM      9  C   UNL     1       3.048   6.260  -6.277  0.00  0.00    +0.157 A 
ATOM     10  F   UNL     1       3.734   7.250  -6.869  0.00  0.00    -0.203 F 
ATOM     11  N   UNL     1       0.254   5.662  -3.459  0.00  0.00    -0.325 N 
ATOM     12  C   UNL     1       1.736   6.064  -6.696  0.00  0.00    +0.112 A 
ENDROOT
BRANCH  12  13
ATOM     13  N   UNL     1       1.470   6.008  -8.084  0.00  0.00    -0.300 N 
ATOM     14  C   UNL     1       2.234   6.876  -8.974  0.00  0.00    +0.108 C 
ATOM     15  C   UNL     1       3.000   5.874 -10.025  0.00  0.00    +0.093 C 
ATOM     16  C   UNL     1       4.364   6.791 -10.021  0.00  0.00    +0.021 C 
ATOM     17  N   UNL     1       3.552   4.949  -8.878  0.00  0.00    -0.216 NA
ATOM     18  C   UNL     1       2.506   3.928  -8.865  0.00  0.00    +0.110 C 
ATOM     19  C   UNL     1       1.199   4.677  -8.628  0.00  0.00    +0.110 C 
ENDBRANCH  12  13
BRANCH   5  20
ATOM     20  C   UNL     1       2.608   7.031  -0.930  0.00  0.00    +0.392 C 
ATOM     21  O   UNL     1       3.430   8.023  -1.483  0.00  0.00    -0.240 OA
ATOM     22  O   UNL     1       3.081   6.500   0.121  0.00  0.00    -0.240 OA
ENDBRANCH   5  20
BRANCH  11  23
ATOM     23  C   UNL     1      -1.078   5.438  -3.679  0.00  0.00    +0.086 C 
ATOM     24  C   UNL     1      -1.825   6.668  -3.041  0.00  0.00    +0.024 C 
ATOM     25  C   UNL     1      -2.385   5.377  -3.320  0.00  0.00    +0.024 C 
ENDBRANCH  11  23
BRANCH   1  27
ATOM     26  C   UNL     1      -1.284   5.201  -6.750  0.00  0.00    +0.253 C 
ATOM     27  O   UNL     1      -0.536   5.956  -6.028  0.00  0.00    -0.469 OA
ENDBRANCH   1  27
TORSDOF 4
ENDMDL
MODEL 6
REMARK VINA RESULT:      -7.3      2.406      4.281
REMARK  Name = 
REMARK  4 active torsions:
REMARK  status: ('A' for Active; 'I' for Inactive)
REMARK    1  A    between atoms: O_2  and  C_3
REMARK    2  A    between atoms: C_4  and  N_5
REMARK    3  A    between atoms: C_18  and  C_19
REMARK    4  A    between atoms: N_23  and  C_24
REMARK                            x       y       z     vdW  Elec       q    Type
REMARK                         _______ _______ _______ _____ _____    ______ ____
ROOT
ATOM      1  C   UNL     1       4.003   5.791 -11.527  0.00  0.00    +0.170 A 
ATOM      2  C   UNL     1       3.478   5.694 -12.813  0.00  0.00    +0.099 A 
ATOM      3  C   UNL     1       2.100   5.551 -12.958  0.00  0.00    +0.060 A 
ATOM      4  C   UNL     1       1.622   5.773 -14.247  0.00  0.00    +0.205 A 
ATOM      5  C   UNL     1       2.315   6.548 -15.173  0.00  0.00    +0.136 A 
ATOM      6  C   UNL     1       3.689   6.595 -14.956  0.00  0.00    +0.086 A 
ATOM      7  O   UNL     1       0.421   5.535 -14.449  0.00  0.00    -0.286 OA
ATOM      8  C   UNL     1       1.296   5.719 -11.833  0.00  0.00    +0.036 A 
ATOM      9  C   UNL     1       1.821   6.310 -10.693  0.00  0.00    +0.157 A 
ATOM     10  F   UNL     1       1.200   7.225  -9.935  0.00  0.00    -0.203 F 
ATOM     11  N   UNL     1       4.270   6.035 -13.860  0.00  0.00    -0.325 N 
ATOM     12  C   UNL     1       3.175   6.103 -10.450  0.00  0.00    +0.112 A 
ENDROOT
BRANCH  12  13
ATOM     13  N   UNL     1       3.603   5.923  -9.113  0.00  0.00    -0.300 N 
ATOM     14  C   UNL     1       2.917   6.662  -8.059  0.00  0.00    +0.108 C 
ATOM     15  C   UNL     1       2.316   5.527  -7.037  0.00  0.00    +0.093 C 
ATOM     16  C   UNL     1       0.929   6.374  -6.793  0.00  0.00    +0.021 C 
ATOM     17  N   UNL     1       1.668   4.695  -8.204  0.00  0.00    -0.216 NA
ATOM     18  C   UNL     1       2.741   3.730  -8.440  0.00  0.00    +0.110 C 
ATOM     19  C   UNL     1       3.983   4.560  -8.744  0.00  0.00    +0.110 C 
ENDBRANCH  12  13
BRANCH   5  20
ATOM     20  C   UNL     1       1.621   7.584 -15.958  0.00  0.00    +0.392 C 
ATOM     21  O   UNL     1       0.886   8.521 -15.218  0.00  0.00    -0.240 OA
ATOM     22  O   UNL     1       1.009   7.139 -16.976  0.00  0.00    -0.240 OA
ENDBRANCH   5  20
BRANCH  11  23
ATOM     23  C   UNL     1       5.620   5.820 -13.819  0.00  0.00    +0.086 C 
ATOM     24  C   UNL     1       6.269   7.051 -14.555  0.00  0.00    +0.024 C 
ATOM     25  C   UNL     1       6.869   5.765 -14.349  0.00  0.00    +0.024 C 
ENDBRANCH  11  23
BRANCH   1  27
ATOM     26  C   UNL     1       5.749   7.222 -10.888  0.00  0.00    +0.253 C 
ATOM     27  O   UNL     1       5.354   6.105 -11.385  0.00  0.00    -0.469 OA
ENDBRANCH   1  27
TORSDOF 4
ENDMDL
MODEL 7
REMARK VINA RESULT:      -7.2      8.225     11.475
REMARK  Name = 
REMARK  4 active torsions:
REMARK  status: ('A' for Active; 'I' for Inactive)
REMARK    1  A    between atoms: O_2  and  C_3
REMARK    2  A    between atoms: C_4  and  N_5
REMARK    3  A    between atoms: C_18  and  C_19
REMARK    4  A    between atoms: N_23  and  C_24
REMARK                            x       y       z     vdW  Elec       q    Type
REMARK                         _______ _______ _______ _____ _____    ______ ____
ROOT
ATOM      1  C   UNL     1       0.769   6.706   0.200  0.00  0.00    +0.170 A 
ATOM      2  C   UNL     1       0.391   5.916  -0.882  0.00  0.00    +0.099 A 
ATOM      3  C   UNL     1      -0.967   5.759  -1.146  0.00  0.00    +0.060 A 
ATOM      4  C   UNL     1      -1.261   5.229  -2.399  0.00  0.00    +0.205 A 
ATOM      5  C   UNL     1      -0.378   5.323  -3.471  0.00  0.00    +0.136 A 
ATOM      6  C   UNL     1       0.957   5.442  -3.096  0.00  0.00    +0.086 A 
ATOM      7  O   UNL     1      -2.450   4.957  -2.630  0.00  0.00    -0.286 OA
ATOM      8  C   UNL     1      -1.872   6.559  -0.451  0.00  0.00    +0.036 A 
ATOM      9  C   UNL     1      -1.419   7.674   0.238  0.00  0.00    +0.157 A 
ATOM     10  F   UNL     1      -2.012   8.876   0.250  0.00  0.00    -0.203 F 
ATOM     11  N   UNL     1       1.335   5.581  -1.796  0.00  0.00    -0.325 N 
ATOM     12  C   UNL     1      -0.136   7.597   0.773  0.00  0.00    +0.112 A 
ENDROOT
BRANCH  12  13
ATOM     13  N   UNL     1       0.108   8.191   2.034  0.00  0.00    -0.300 N 
ATOM     14  C   UNL     1      -0.605   9.418   2.374  0.00  0.00    +0.108 C 
ATOM     15  C   UNL     1      -1.452   9.078   3.739  0.00  0.00    +0.093 C 
ATOM     16  C   UNL     1      -2.748   9.957   3.243  0.00  0.00    +0.021 C 
ATOM     17  N   UNL     1      -2.052   7.752   3.140  0.00  0.00    -0.216 NA
ATOM     18  C   UNL     1      -1.080   6.790   3.657  0.00  0.00    +0.110 C 
ATOM     19  C   UNL     1       0.279   7.264   3.152  0.00  0.00    +0.110 C 
ENDBRANCH  12  13
BRANCH   5  20
ATOM     20  C   UNL     1      -0.848   5.756  -4.799  0.00  0.00    +0.392 C 
ATOM     21  O   UNL     1      -0.304   5.070  -5.894  0.00  0.00    -0.240 OA
ATOM     22  O   UNL     1      -0.888   7.015  -4.950  0.00  0.00    -0.240 OA
ENDBRANCH   5  20
BRANCH  11  23
ATOM     23  C   UNL     1       2.637   5.384  -1.423  0.00  0.00    +0.086 C 
ATOM     24  C   UNL     1       3.507   5.927  -2.617  0.00  0.00    +0.024 C 
ATOM     25  C   UNL     1       3.920   4.986  -1.616  0.00  0.00    +0.024 C 
ENDBRANCH  11  23
BRANCH   1  27
ATOM     26  C   UNL     1       2.579   8.199   0.258  0.00  0.00    +0.253 C 
ATOM     27  O   UNL     1       2.122   7.003   0.364  0.00  0.00    -0.469 OA
ENDBRANCH   1  27
TORSDOF 4
ENDMDL
MODEL 8
REMARK VINA RESULT:      -6.9      2.264      4.169
REMARK  Name = 
REMARK  4 active torsions:
REMARK  status: ('A' for Active; 'I' for Inactive)
REMARK    1  A    between atoms: O_2  and  C_3
REMARK    2  A    between atoms: C_4  and  N_5
REMARK    3  A    between atoms: C_18  and  C_19
REMARK    4  A    between atoms: N_23  and  C_24
REMARK                            x       y       z     vdW  Elec       q    Type
REMARK                         _______ _______ _______ _____ _____    ______ ____
ROOT
ATOM      1  C   UNL     1       3.353   5.608  -9.294  0.00  0.00    +0.170 A 
ATOM      2  C   UNL     1       2.878   5.314 -10.569  0.00  0.00    +0.099 A 
ATOM      3  C   UNL     1       1.515   5.083 -10.732  0.00  0.00    +0.060 A 
ATOM      4  C   UNL     1       1.072   5.107 -12.052  0.00  0.00    +0.205 A 
ATOM      5  C   UNL     1       1.760   5.786 -13.054  0.00  0.00    +0.136 A 
ATOM      6  C   UNL     1       3.121   5.932 -12.807  0.00  0.00    +0.086 A 
ATOM      7  O   UNL     1      -0.110   4.784 -12.255  0.00  0.00    -0.286 OA
ATOM      8  C   UNL     1       0.665   5.359  -9.663  0.00  0.00    +0.036 A 
ATOM      9  C   UNL     1       1.122   6.122  -8.599  0.00  0.00    +0.157 A 
ATOM     10  F   UNL     1       0.433   7.097  -7.988  0.00  0.00    -0.203 F 
ATOM     11  N   UNL     1       3.690   5.553 -11.630  0.00  0.00    -0.325 N 
ATOM     12  C   UNL     1       2.475   6.018  -8.292  0.00  0.00    +0.112 A 
ENDROOT
BRANCH  12  13
ATOM     13  N   UNL     1       2.864   6.040  -6.932  0.00  0.00    -0.300 N 
ATOM     14  C   UNL     1       2.143   6.918  -6.017  0.00  0.00    +0.108 C 
ATOM     15  C   UNL     1       1.518   5.939  -4.857  0.00  0.00    +0.093 C 
ATOM     16  C   UNL     1       0.120   6.798  -4.780  0.00  0.00    +0.021 C 
ATOM     17  N   UNL     1       0.910   4.938  -5.908  0.00  0.00    -0.216 NA
ATOM     18  C   UNL     1       1.995   3.960  -5.970  0.00  0.00    +0.110 C 
ATOM     19  C   UNL     1       3.241   4.749  -6.356  0.00  0.00    +0.110 C 
ENDBRANCH  12  13
BRANCH   5  20
ATOM     20  C   UNL     1       1.046   6.672 -13.991  0.00  0.00    +0.392 C 
ATOM     21  O   UNL     1       1.502   6.656 -15.316  0.00  0.00    -0.240 OA
ATOM     22  O   UNL     1       0.826   7.836 -13.537  0.00  0.00    -0.240 OA
ENDBRANCH   5  20
BRANCH  11  23
ATOM     23  C   UNL     1       5.046   5.414 -11.522  0.00  0.00    +0.086 C 
ATOM     24  C   UNL     1       5.660   6.687 -12.217  0.00  0.00    +0.024 C 
ATOM     25  C   UNL     1       6.321   5.434 -11.988  0.00  0.00    +0.024 C 
ENDBRANCH  11  23
BRANCH   1  27
ATOM     26  C   UNL     1       5.551   5.292  -8.537  0.00  0.00    +0.253 C 
ATOM     27  O   UNL     1       4.682   6.007  -9.157  0.00  0.00    -0.469 OA
ENDBRANCH   1  27
TORSDOF 4
ENDMDL
MODEL 9
REMARK VINA RESULT:      -6.6      4.766      7.300
REMARK  Name = 
REMARK  4 active torsions:
REMARK  status: ('A' for Active; 'I' for Inactive)
REMARK    1  A    between atoms: O_2  and  C_3
REMARK    2  A    between atoms: C_4  and  N_5
REMARK    3  A    between atoms: C_18  and  C_19
REMARK    4  A    between atoms: N_23  and  C_24
REMARK                            x       y       z     vdW  Elec       q    Type
REMARK                         _______ _______ _______ _____ _____    ______ ____
ROOT
ATOM      1  C   UNL     1       1.249   6.515  -3.177  0.00  0.00    +0.170 A 
ATOM      2  C   UNL     1       1.338   6.744  -4.547  0.00  0.00    +0.099 A 
ATOM      3  C   UNL     1       2.602   6.788  -5.132  0.00  0.00    +0.060 A 
ATOM      4  C   UNL     1       2.606   6.706  -6.521  0.00  0.00    +0.205 A 
ATOM      5  C   UNL     1       1.559   6.127  -7.234  0.00  0.00    +0.136 A 
ATOM      6  C   UNL     1       0.335   6.167  -6.575  0.00  0.00    +0.086 A 
ATOM      7  O   UNL     1       3.698   6.866  -7.091  0.00  0.00    -0.286 OA
ATOM      8  C   UNL     1       3.698   6.398  -4.365  0.00  0.00    +0.036 A 
ATOM      9  C   UNL     1       3.499   5.703  -3.182  0.00  0.00    +0.157 A 
ATOM     10  F   UNL     1       4.211   4.643  -2.773  0.00  0.00    -0.203 F 
ATOM     11  N   UNL     1       0.214   6.619  -5.297  0.00  0.00    -0.325 N 
ATOM     12  C   UNL     1       2.333   5.989  -2.478  0.00  0.00    +0.112 A 
ENDROOT
BRANCH  12  13
ATOM     13  N   UNL     1       2.386   6.018  -1.065  0.00  0.00    -0.300 N 
ATOM     14  C   UNL     1       3.678   5.830  -0.413  0.00  0.00    +0.108 C 
ATOM     15  C   UNL     1       3.930   7.186   0.478  0.00  0.00    +0.093 C 
ATOM     16  C   UNL     1       5.534   7.212   0.121  0.00  0.00    +0.021 C 
ATOM     17  N   UNL     1       3.590   8.144  -0.723  0.00  0.00    -0.216 NA
ATOM     18  C   UNL     1       2.174   8.382  -0.451  0.00  0.00    +0.110 C 
ATOM     19  C   UNL     1       1.522   7.004  -0.415  0.00  0.00    +0.110 C 
ENDBRANCH  12  13
BRANCH   5  20
ATOM     20  C   UNL     1       1.827   5.154  -8.308  0.00  0.00    +0.392 C 
ATOM     21  O   UNL     1       0.848   5.062  -9.308  0.00  0.00    -0.240 OA
ATOM     22  O   UNL     1       2.247   4.030  -7.896  0.00  0.00    -0.240 OA
ENDBRANCH   5  20
BRANCH  11  23
ATOM     23  C   UNL     1      -1.012   6.941  -4.782  0.00  0.00    +0.086 C 
ATOM     24  C   UNL     1      -2.041   6.005  -5.521  0.00  0.00    +0.024 C 
ATOM     25  C   UNL     1      -2.333   7.245  -4.862  0.00  0.00    +0.024 C 
ENDBRANCH  11  23
BRANCH   1  27
ATOM     26  C   UNL     1      -0.408   5.136  -2.250  0.00  0.00    +0.253 C 
ATOM     27  O   UNL     1      -0.012   6.301  -2.622  0.00  0.00    -0.469 OA
ENDBRANCH   1  27
TORSDOF 4
ENDMDL
