MODEL 1
REMARK VINA RESULT:      -7.1      0.000      0.000
REMARK  Name = 
REMARK  10 active torsions:
REMARK  status: ('A' for Active; 'I' for Inactive)
REMARK    1  A    between atoms: O_2  and  C_3
REMARK    2  A    between atoms: C_3  and  C_4
REMARK    3  A    between atoms: C_4  and  O_5
REMARK    4  A    between atoms: O_5  and  C_6
REMARK    5  A    between atoms: C_6  and  C_8
REMARK    6  A    between atoms: C_14  and  C_15
REMARK    7  A    between atoms: C_15  and  O_17
REMARK    8  A    between atoms: O_17  and  C_18
REMARK    9  A    between atoms: C_21  and  C_22
REMARK   10  A    between atoms: C_26  and  N_27
REMARK                            x       y       z     vdW  Elec       q    Type
REMARK                         _______ _______ _______ _____ _____    ______ ____
ROOT
ATOM      1  C   UNL     1       3.330   7.138  -3.597  0.00  0.00    +0.073 C 
ATOM      2  C   UNL     1       2.665   5.694  -3.883  0.00  0.00    +0.082 C 
ATOM      3  C   UNL     1       1.944   6.133  -5.255  0.00  0.00    +0.073 C 
ATOM      4  C   UNL     1       2.564   6.960  -6.043  0.00  0.00    +0.051 C 
ATOM      5  C   UNL     1       1.825   7.385  -7.274  0.00  0.00    +0.049 C 
ATOM      6  N   UNL     1       3.929   7.349  -5.833  0.00  0.00    -0.221 NA
ATOM      7  C   UNL     1       4.327   7.315  -4.463  0.00  0.00    +0.051 C 
ATOM      8  C   UNL     1       5.726   7.603  -4.113  0.00  0.00    +0.049 C 
ENDROOT
BRANCH   2   9
ATOM      9  C   UNL     1       1.369   6.042  -2.983  0.00  0.00    -0.008 A 
ATOM     10  C   UNL     1       0.329   6.646  -3.685  0.00  0.00    +0.072 A 
ATOM     11  C   UNL     1      -0.902   6.765  -3.095  0.00  0.00    +0.290 A 
ATOM     12  C   UNL     1      -1.151   6.024  -1.962  0.00  0.00    +0.075 A 
ATOM     13  C   UNL     1      -0.172   5.204  -1.415  0.00  0.00    +0.006 A 
ATOM     14  C   UNL     1       0.915   4.949  -2.245  0.00  0.00    -0.003 A 
BRANCH  11  15
ATOM     15  N   UNL     1      -1.946   7.503  -3.695  0.00  0.00    +0.081 N 
ATOM     16  O   UNL     1      -1.688   8.511  -4.596  0.00  0.00    -0.576 OA
ATOM     17  O   UNL     1      -3.115   7.097  -3.570  0.00  0.00    +0.041 OA
ENDBRANCH  11  15
ENDBRANCH   2   9
BRANCH   1  18
ATOM     18  C   UNL     1       3.690   7.389  -2.196  0.00  0.00    +0.339 C 
ATOM     19  O   UNL     1       4.224   6.483  -1.486  0.00  0.00    -0.245 OA
BRANCH  18  20
ATOM     20  O   UNL     1       3.760   8.677  -1.690  0.00  0.00    -0.443 OA
BRANCH  20  21
ATOM     21  C   UNL     1       3.683   9.004  -0.328  0.00  0.00    +0.241 C 
BRANCH  21  22
ATOM     22  C   UNL     1       3.454  10.493  -0.183  0.00  0.00    +0.190 C 
BRANCH  22  24
ATOM     23  C   UNL     1       1.561   9.699   0.891  0.00  0.00    +0.174 C 
ATOM     24  O   UNL     1       2.265  10.793   0.450  0.00  0.00    -0.347 OA
ENDBRANCH  22  24
ENDBRANCH  21  22
ENDBRANCH  20  21
ENDBRANCH  18  20
ENDBRANCH   1  18
BRANCH   3  25
ATOM     25  C   UNL     1       1.292   4.972  -5.894  0.00  0.00    +0.339 C 
ATOM     26  O   UNL     1       1.955   3.893  -5.970  0.00  0.00    -0.245 OA
BRANCH  25  27
ATOM     27  O   UNL     1      -0.086   4.814  -5.946  0.00  0.00    -0.449 OA
BRANCH  27  28
ATOM     28  C   UNL     1      -0.943   5.627  -6.745  0.00  0.00    +0.169 C 
ATOM     29  C   UNL     1      -2.393   5.296  -6.408  0.00  0.00    +0.047 C 
ATOM     30  C   UNL     1      -0.766   5.222  -8.203  0.00  0.00    +0.047 C 
ENDBRANCH  27  28
ENDBRANCH  25  27
ENDBRANCH   3  25
TORSDOF 10
ENDMDL
MODEL 2
REMARK VINA RESULT:      -7.0      2.076      5.678
REMARK  Name = 
REMARK  10 active torsions:
REMARK  status: ('A' for Active; 'I' for Inactive)
REMARK    1  A    between atoms: O_2  and  C_3
REMARK    2  A    between atoms: C_3  and  C_4
REMARK    3  A    between atoms: C_4  and  O_5
REMARK    4  A    between atoms: O_5  and  C_6
REMARK    5  A    between atoms: C_6  and  C_8
REMARK    6  A    between atoms: C_14  and  C_15
REMARK    7  A    between atoms: C_15  and  O_17
REMARK    8  A    between atoms: O_17  and  C_18
REMARK    9  A    between atoms: C_21  and  C_22
REMARK   10  A    between atoms: C_26  and  N_27
REMARK                            x       y       z     vdW  Elec       q    Type
REMARK                         _______ _______ _______ _____ _____    ______ ____
ROOT
ATOM      1  C   UNL     1       0.331   5.642  -4.981  0.00  0.00    +0.073 C 
ATOM      2  C   UNL     1      -0.223   4.906  -3.653  0.00  0.00    +0.082 C 
ATOM      3  C   UNL     1      -0.877   6.231  -3.012  0.00  0.00    +0.073 C 
ATOM      4  C   UNL     1      -1.436   7.093  -3.809  0.00  0.00    +0.051 C 
ATOM      5  C   UNL     1      -1.973   8.336  -3.171  0.00  0.00    +0.049 C 
ATOM      6  N   UNL     1      -1.656   6.826  -5.201  0.00  0.00    -0.221 NA
ATOM      7  C   UNL     1      -0.709   5.920  -5.766  0.00  0.00    +0.051 C 
ATOM      8  C   UNL     1      -0.869   5.488  -7.162  0.00  0.00    +0.049 C 
ENDROOT
BRANCH   2   9
ATOM      9  C   UNL     1       1.179   5.112  -2.877  0.00  0.00    -0.008 A 
ATOM     10  C   UNL     1       1.547   6.443  -2.700  0.00  0.00    +0.072 A 
ATOM     11  C   UNL     1       2.579   6.750  -1.852  0.00  0.00    +0.290 A 
ATOM     12  C   UNL     1       3.013   5.775  -0.982  0.00  0.00    +0.075 A 
ATOM     13  C   UNL     1       2.444   4.508  -0.987  0.00  0.00    +0.006 A 
ATOM     14  C   UNL     1       1.240   4.405  -1.676  0.00  0.00    -0.003 A 
BRANCH  11  15
ATOM     15  N   UNL     1       3.094   8.061  -1.752  0.00  0.00    +0.081 N 
ATOM     16  O   UNL     1       2.953   8.805  -0.602  0.00  0.00    -0.576 OA
ATOM     17  O   UNL     1       3.867   8.469  -2.637  0.00  0.00    +0.041 OA
ENDBRANCH  11  15
ENDBRANCH   2   9
BRANCH   1  18
ATOM     18  C   UNL     1       1.436   4.951  -5.657  0.00  0.00    +0.339 C 
ATOM     19  O   UNL     1       1.391   3.703  -5.875  0.00  0.00    -0.245 OA
BRANCH  18  20
ATOM     20  O   UNL     1       2.405   5.655  -6.355  0.00  0.00    -0.443 OA
BRANCH  20  21
ATOM     21  C   UNL     1       2.965   6.871  -5.935  0.00  0.00    +0.241 C 
BRANCH  21  22
ATOM     22  C   UNL     1       4.374   6.627  -5.439  0.00  0.00    +0.190 C 
BRANCH  22  24
ATOM     23  C   UNL     1       4.892   4.853  -4.041  0.00  0.00    +0.174 C 
ATOM     24  O   UNL     1       4.677   5.286  -5.327  0.00  0.00    -0.347 OA
ENDBRANCH  22  24
ENDBRANCH  21  22
ENDBRANCH  20  21
ENDBRANCH  18  20
ENDBRANCH   1  18
BRANCH   3  25
ATOM     25  C   UNL     1      -1.610   5.902  -1.774  0.00  0.00    +0.339 C 
ATOM     26  O   UNL     1      -2.490   4.990  -1.835  0.00  0.00    -0.245 OA
BRANCH  25  27
ATOM     27  O   UNL     1      -1.089   6.124  -0.507  0.00  0.00    -0.449 OA
BRANCH  27  28
ATOM     28  C   UNL     1      -0.695   7.410  -0.030  0.00  0.00    +0.169 C 
ATOM     29  C   UNL     1       0.283   7.229   1.125  0.00  0.00    +0.047 C 
ATOM     30  C   UNL     1      -1.915   8.090   0.577  0.00  0.00    +0.047 C 
ENDBRANCH  27  28
ENDBRANCH  25  27
ENDBRANCH   3  25
TORSDOF 10
ENDMDL
MODEL 3
REMARK VINA RESULT:      -6.9      5.155      8.600
REMARK  Name = 
REMARK  10 active torsions:
REMARK  status: ('A' for Active; 'I' for Inactive)
REMARK    1  A    between atoms: O_2  and  C_3
REMARK    2  A    between atoms: C_3  and  C_4
REMARK    3  A    between atoms: C_4  and  O_5
REMARK    4  A    between atoms: O_5  and  C_6
REMARK    5  A    between atoms: C_6  and  C_8
REMARK    6  A    between atoms: C_14  and  C_15
REMARK    7  A    between atoms: C_15  and  O_17
REMARK    8  A    between atoms: O_17  and  C_18
REMARK    9  A    between atoms: C_21  and  C_22
REMARK   10  A    between atoms: C_26  and  N_27
REMARK                            x       y       z     vdW  Elec       q    Type
REMARK                         _______ _______ _______ _____ _____    ______ ____
ROOT
ATOM      1  C   UNL     1       3.813   5.624  -9.721  0.00  0.00    +0.073 C 
ATOM      2  C   UNL     1       2.720   6.653  -9.125  0.00  0.00    +0.082 C 
ATOM      3  C   UNL     1       2.117   5.620  -8.047  0.00  0.00    +0.073 C 
ATOM      4  C   UNL     1       2.932   4.800  -7.453  0.00  0.00    +0.051 C 
ATOM      5  C   UNL     1       2.314   3.819  -6.506  0.00  0.00    +0.049 C 
ATOM      6  N   UNL     1       4.358   4.901  -7.581  0.00  0.00    -0.221 NA
ATOM      7  C   UNL     1       4.780   5.476  -8.817  0.00  0.00    +0.051 C 
ATOM      8  C   UNL     1       6.212   5.722  -9.044  0.00  0.00    +0.049 C 
ENDROOT
BRANCH   2   9
ATOM      9  C   UNL     1       1.634   6.252 -10.253  0.00  0.00    -0.008 A 
ATOM     10  C   UNL     1       1.862   6.827 -11.500  0.00  0.00    +0.072 A 
ATOM     11  C   UNL     1       1.163   6.377 -12.589  0.00  0.00    +0.290 A 
ATOM     12  C   UNL     1       0.487   5.183 -12.475  0.00  0.00    +0.075 A 
ATOM     13  C   UNL     1       0.490   4.472 -11.281  0.00  0.00    +0.006 A 
ATOM     14  C   UNL     1       1.449   4.874 -10.357  0.00  0.00    -0.003 A 
BRANCH  11  15
ATOM     15  N   UNL     1       1.239   7.024 -13.842  0.00  0.00    +0.081 N 
ATOM     16  O   UNL     1       1.683   6.365 -14.966  0.00  0.00    -0.576 OA
ATOM     17  O   UNL     1       0.701   8.137 -13.974  0.00  0.00    +0.041 OA
ENDBRANCH  11  15
ENDBRANCH   2   9
BRANCH   1  18
ATOM     18  C   UNL     1       4.290   5.939 -11.074  0.00  0.00    +0.339 C 
ATOM     19  O   UNL     1       4.716   7.098 -11.363  0.00  0.00    -0.245 OA
BRANCH  18  20
ATOM     20  O   UNL     1       4.588   4.937 -11.983  0.00  0.00    -0.443 OA
BRANCH  20  21
ATOM     21  C   UNL     1       4.686   5.123 -13.371  0.00  0.00    +0.241 C 
BRANCH  21  22
ATOM     22  C   UNL     1       6.124   5.428 -13.734  0.00  0.00    +0.190 C 
BRANCH  22  24
ATOM     23  C   UNL     1       8.055   5.461 -12.454  0.00  0.00    +0.174 C 
ATOM     24  O   UNL     1       7.030   4.712 -12.979  0.00  0.00    -0.347 OA
ENDBRANCH  22  24
ENDBRANCH  21  22
ENDBRANCH  20  21
ENDBRANCH  18  20
ENDBRANCH   1  18
BRANCH   3  25
ATOM     25  C   UNL     1       1.111   6.286  -7.196  0.00  0.00    +0.339 C 
ATOM     26  O   UNL     1       1.412   7.414  -6.701  0.00  0.00    -0.245 OA
BRANCH  25  27
ATOM     27  O   UNL     1      -0.251   6.043  -7.308  0.00  0.00    -0.449 OA
BRANCH  27  28
ATOM     28  C   UNL     1      -0.992   5.261  -6.374  0.00  0.00    +0.169 C 
ATOM     29  C   UNL     1      -2.451   5.703  -6.407  0.00  0.00    +0.047 C 
ATOM     30  C   UNL     1      -0.501   5.595  -4.971  0.00  0.00    +0.047 C 
ENDBRANCH  27  28
ENDBRANCH  25  27
ENDBRANCH   3  25
TORSDOF 10
ENDMDL
MODEL 4
REMARK VINA RESULT:      -6.9      2.581      5.231
REMARK  Name = 
REMARK  10 active torsions:
REMARK  status: ('A' for Active; 'I' for Inactive)
REMARK    1  A    between atoms: O_2  and  C_3
REMARK    2  A    between atoms: C_3  and  C_4
REMARK    3  A    between atoms: C_4  and  O_5
REMARK    4  A    between atoms: O_5  and  C_6
REMARK    5  A    between atoms: C_6  and  C_8
REMARK    6  A    between atoms: C_14  and  C_15
REMARK    7  A    between atoms: C_15  and  O_17
REMARK    8  A    between atoms: O_17  and  C_18
REMARK    9  A    between atoms: C_21  and  C_22
REMARK   10  A    between atoms: C_26  and  N_27
REMARK                            x       y       z     vdW  Elec       q    Type
REMARK                         _______ _______ _______ _____ _____    ______ ____
ROOT
ATOM      1  C   UNL     1       0.509   5.867  -5.630  0.00  0.00    +0.073 C 
ATOM      2  C   UNL     1       1.475   6.979  -6.294  0.00  0.00    +0.082 C 
ATOM      3  C   UNL     1       1.885   6.078  -7.565  0.00  0.00    +0.073 C 
ATOM      4  C   UNL     1       0.983   5.305  -8.092  0.00  0.00    +0.051 C 
ATOM      5  C   UNL     1       1.431   4.442  -9.231  0.00  0.00    +0.049 C 
ATOM      6  N   UNL     1      -0.398   5.358  -7.708  0.00  0.00    -0.221 NA
ATOM      7  C   UNL     1      -0.601   5.791  -6.363  0.00  0.00    +0.051 C 
ATOM      8  C   UNL     1      -1.971   5.978  -5.866  0.00  0.00    +0.049 C 
ENDROOT
BRANCH   2   9
ATOM      9  C   UNL     1       2.744   6.488  -5.422  0.00  0.00    -0.008 A 
ATOM     10  C   UNL     1       2.925   7.185  -4.229  0.00  0.00    +0.072 A 
ATOM     11  C   UNL     1       3.808   6.707  -3.296  0.00  0.00    +0.290 A 
ATOM     12  C   UNL     1       4.256   5.412  -3.433  0.00  0.00    +0.075 A 
ATOM     13  C   UNL     1       3.849   4.625  -4.503  0.00  0.00    +0.006 A 
ATOM     14  C   UNL     1       2.753   5.110  -5.210  0.00  0.00    -0.003 A 
BRANCH  11  15
ATOM     15  N   UNL     1       4.145   7.449  -2.143  0.00  0.00    +0.081 N 
ATOM     16  O   UNL     1       3.625   8.703  -1.918  0.00  0.00    -0.576 OA
ATOM     17  O   UNL     1       4.750   6.877  -1.219  0.00  0.00    +0.041 OA
ENDBRANCH  11  15
ENDBRANCH   2   9
BRANCH   1  18
ATOM     18  C   UNL     1       0.276   6.028  -4.189  0.00  0.00    +0.339 C 
ATOM     19  O   UNL     1      -0.246   7.087  -3.726  0.00  0.00    -0.245 OA
BRANCH  18  20
ATOM     20  O   UNL     1       0.315   4.944  -3.328  0.00  0.00    -0.443 OA
BRANCH  20  21
ATOM     21  C   UNL     1       0.101   5.017  -1.943  0.00  0.00    +0.241 C 
BRANCH  21  22
ATOM     22  C   UNL     1       1.396   4.713  -1.221  0.00  0.00    +0.190 C 
BRANCH  22  24
ATOM     23  C   UNL     1       0.961   6.827  -0.375  0.00  0.00    +0.174 C 
ATOM     24  O   UNL     1       1.770   5.716  -0.350  0.00  0.00    -0.347 OA
ENDBRANCH  22  24
ENDBRANCH  21  22
ENDBRANCH  20  21
ENDBRANCH  18  20
ENDBRANCH   1  18
BRANCH   3  25
ATOM     25  C   UNL     1       2.724   6.852  -8.502  0.00  0.00    +0.339 C 
ATOM     26  O   UNL     1       2.500   8.098  -8.599  0.00  0.00    -0.245 OA
BRANCH  25  27
ATOM     27  O   UNL     1       4.001   6.458  -8.874  0.00  0.00    -0.449 OA
BRANCH  27  28
ATOM     28  C   UNL     1       4.598   6.798 -10.124  0.00  0.00    +0.169 C 
ATOM     29  C   UNL     1       3.777   6.175 -11.248  0.00  0.00    +0.047 C 
ATOM     30  C   UNL     1       5.963   6.126 -10.202  0.00  0.00    +0.047 C 
ENDBRANCH  27  28
ENDBRANCH  25  27
ENDBRANCH   3  25
TORSDOF 10
ENDMDL
MODEL 5
REMARK VINA RESULT:      -6.6      2.209      2.909
REMARK  Name = 
REMARK  10 active torsions:
REMARK  status: ('A' for Active; 'I' for Inactive)
REMARK    1  A    between atoms: O_2  and  C_3
REMARK    2  A    between atoms: C_3  and  C_4
REMARK    3  A    between atoms: C_4  and  O_5
REMARK    4  A    between atoms: O_5  and  C_6
REMARK    5  A    between atoms: C_6  and  C_8
REMARK    6  A    between atoms: C_14  and  C_15
REMARK    7  A    between atoms: C_15  and  O_17
REMARK    8  A    between atoms: O_17  and  C_18
REMARK    9  A    between atoms: C_21  and  C_22
REMARK   10  A    between atoms: C_26  and  N_27
REMARK                            x       y       z     vdW  Elec       q    Type
REMARK                         _______ _______ _______ _____ _____    ______ ____
ROOT
ATOM      1  C   UNL     1       3.082   5.905  -4.879  0.00  0.00    +0.073 C 
ATOM      2  C   UNL     1       2.320   4.760  -5.726  0.00  0.00    +0.082 C 
ATOM      3  C   UNL     1       2.494   5.492  -7.151  0.00  0.00    +0.073 C 
ATOM      4  C   UNL     1       3.598   6.136  -7.385  0.00  0.00    +0.051 C 
ATOM      5  C   UNL     1       3.684   6.851  -8.698  0.00  0.00    +0.049 C 
ATOM      6  N   UNL     1       4.731   6.069  -6.508  0.00  0.00    -0.221 NA
ATOM      7  C   UNL     1       4.385   5.821  -5.146  0.00  0.00    +0.051 C 
ATOM      8  C   UNL     1       5.454   5.638  -4.154  0.00  0.00    +0.049 C 
ENDROOT
BRANCH   2   9
ATOM      9  C   UNL     1       0.876   5.431  -5.454  0.00  0.00    -0.008 A 
ATOM     10  C   UNL     1       0.264   5.019  -4.273  0.00  0.00    +0.072 A 
ATOM     11  C   UNL     1      -0.837   5.692  -3.813  0.00  0.00    +0.290 A 
ATOM     12  C   UNL     1      -1.119   6.923  -4.363  0.00  0.00    +0.075 A 
ATOM     13  C   UNL     1      -0.328   7.451  -5.375  0.00  0.00    +0.006 A 
ATOM     14  C   UNL     1       0.900   6.822  -5.554  0.00  0.00    -0.003 A 
BRANCH  11  15
ATOM     15  N   UNL     1      -1.587   5.226  -2.711  0.00  0.00    +0.081 N 
ATOM     16  O   UNL     1      -2.846   4.694  -2.870  0.00  0.00    -0.576 OA
ATOM     17  O   UNL     1      -1.018   5.100  -1.611  0.00  0.00    +0.041 OA
ENDBRANCH  11  15
ENDBRANCH   2   9
BRANCH   1  18
ATOM     18  C   UNL     1       2.757   5.937  -3.447  0.00  0.00    +0.339 C 
ATOM     19  O   UNL     1       2.911   4.911  -2.719  0.00  0.00    -0.245 OA
BRANCH  18  20
ATOM     20  O   UNL     1       2.577   7.136  -2.777  0.00  0.00    -0.443 OA
BRANCH  20  21
ATOM     21  C   UNL     1       3.579   8.100  -2.584  0.00  0.00    +0.241 C 
BRANCH  21  22
ATOM     22  C   UNL     1       3.704   8.403  -1.107  0.00  0.00    +0.190 C 
BRANCH  22  24
ATOM     23  C   UNL     1       4.726   6.661   0.029  0.00  0.00    +0.174 C 
ATOM     24  O   UNL     1       3.550   7.283  -0.316  0.00  0.00    -0.347 OA
ENDBRANCH  22  24
ENDBRANCH  21  22
ENDBRANCH  20  21
ENDBRANCH  18  20
ENDBRANCH   1  18
BRANCH   3  25
ATOM     25  C   UNL     1       1.983   4.635  -8.240  0.00  0.00    +0.339 C 
ATOM     26  O   UNL     1       2.307   3.409  -8.225  0.00  0.00    -0.245 OA
BRANCH  25  27
ATOM     27  O   UNL     1       0.823   4.924  -8.947  0.00  0.00    -0.449 OA
BRANCH  27  28
ATOM     28  C   UNL     1       0.810   5.290 -10.325  0.00  0.00    +0.169 C 
ATOM     29  C   UNL     1       0.190   6.676 -10.461  0.00  0.00    +0.047 C 
ATOM     30  C   UNL     1      -0.136   4.350 -11.062  0.00  0.00    +0.047 C 
ENDBRANCH  27  28
ENDBRANCH  25  27
ENDBRANCH   3  25
TORSDOF 10
ENDMDL
MODEL 6
REMARK VINA RESULT:      -6.5      2.231      2.850
REMARK  Name = 
REMARK  10 active torsions:
REMARK  status: ('A' for Active; 'I' for Inactive)
REMARK    1  A    between atoms: O_2  and  C_3
REMARK    2  A    between atoms: C_3  and  C_4
REMARK    3  A    between atoms: C_4  and  O_5
REMARK    4  A    between atoms: O_5  and  C_6
REMARK    5  A    between atoms: C_6  and  C_8
REMARK    6  A    between atoms: C_14  and  C_15
REMARK    7  A    between atoms: C_15  and  O_17
REMARK    8  A    between atoms: O_17  and  C_18
REMARK    9  A    between atoms: C_21  and  C_22
REMARK   10  A    between atoms: C_26  and  N_27
REMARK                            x       y       z     vdW  Elec       q    Type
REMARK                         _______ _______ _______ _____ _____    ______ ____
ROOT
ATOM      1  C   UNL     1       2.200   5.698  -3.014  0.00  0.00    +0.073 C 
ATOM      2  C   UNL     1       1.734   4.653  -4.155  0.00  0.00    +0.082 C 
ATOM      3  C   UNL     1       2.533   5.377  -5.352  0.00  0.00    +0.073 C 
ATOM      4  C   UNL     1       3.695   5.899  -5.094  0.00  0.00    +0.051 C 
ATOM      5  C   UNL     1       4.368   6.614  -6.224  0.00  0.00    +0.049 C 
ATOM      6  N   UNL     1       4.370   5.697  -3.844  0.00  0.00    -0.221 NA
ATOM      7  C   UNL     1       3.486   5.474  -2.747  0.00  0.00    +0.051 C 
ATOM      8  C   UNL     1       4.045   5.163  -1.423  0.00  0.00    +0.049 C 
ENDROOT
BRANCH   2   9
ATOM      9  C   UNL     1       0.373   5.477  -4.442  0.00  0.00    -0.008 A 
ATOM     10  C   UNL     1      -0.647   5.238  -3.526  0.00  0.00    +0.072 A 
ATOM     11  C   UNL     1      -1.751   6.050  -3.518  0.00  0.00    +0.290 A 
ATOM     12  C   UNL     1      -1.681   7.243  -4.202  0.00  0.00    +0.075 A 
ATOM     13  C   UNL     1      -0.536   7.597  -4.905  0.00  0.00    +0.006 A 
ATOM     14  C   UNL     1       0.595   6.844  -4.609  0.00  0.00    -0.003 A 
BRANCH  11  15
ATOM     15  N   UNL     1      -2.880   5.762  -2.720  0.00  0.00    +0.081 N 
ATOM     16  O   UNL     1      -2.784   4.975  -1.596  0.00  0.00    -0.576 OA
ATOM     17  O   UNL     1      -3.930   6.400  -2.917  0.00  0.00    +0.041 OA
ENDBRANCH  11  15
ENDBRANCH   2   9
BRANCH   1  18
ATOM     18  C   UNL     1       1.333   5.750  -1.830  0.00  0.00    +0.339 C 
ATOM     19  O   UNL     1       1.028   4.695  -1.196  0.00  0.00    -0.245 OA
BRANCH  18  20
ATOM     20  O   UNL     1       1.077   6.945  -1.178  0.00  0.00    -0.443 OA
BRANCH  20  21
ATOM     21  C   UNL     1       0.338   7.064   0.010  0.00  0.00    +0.241 C 
BRANCH  21  22
ATOM     22  C   UNL     1      -0.948   7.809  -0.274  0.00  0.00    +0.190 C 
BRANCH  22  24
ATOM     23  C   UNL     1      -0.018   9.311   1.226  0.00  0.00    +0.174 C 
ATOM     24  O   UNL     1      -1.150   8.873   0.581  0.00  0.00    -0.347 OA
ENDBRANCH  22  24
ENDBRANCH  21  22
ENDBRANCH  20  21
ENDBRANCH  18  20
ENDBRANCH   1  18
BRANCH   3  25
ATOM     25  C   UNL     1       2.420   4.595  -6.599  0.00  0.00    +0.339 C 
ATOM     26  O   UNL     1       2.124   3.365  -6.498  0.00  0.00    -0.245 OA
BRANCH  25  27
ATOM     27  O   UNL     1       2.115   5.169  -7.825  0.00  0.00    -0.449 OA
BRANCH  27  28
ATOM     28  C   UNL     1       1.103   6.157  -8.004  0.00  0.00    +0.169 C 
ATOM     29  C   UNL     1      -0.255   5.467  -8.062  0.00  0.00    +0.047 C 
ATOM     30  C   UNL     1       1.290   6.793  -9.376  0.00  0.00    +0.047 C 
ENDBRANCH  27  28
ENDBRANCH  25  27
ENDBRANCH   3  25
TORSDOF 10
ENDMDL
MODEL 7
REMARK VINA RESULT:      -6.4      2.374      6.251
REMARK  Name = 
REMARK  10 active torsions:
REMARK  status: ('A' for Active; 'I' for Inactive)
REMARK    1  A    between atoms: O_2  and  C_3
REMARK    2  A    between atoms: C_3  and  C_4
REMARK    3  A    between atoms: C_4  and  O_5
REMARK    4  A    between atoms: O_5  and  C_6
REMARK    5  A    between atoms: C_6  and  C_8
REMARK    6  A    between atoms: C_14  and  C_15
REMARK    7  A    between atoms: C_15  and  O_17
REMARK    8  A    between atoms: O_17  and  C_18
REMARK    9  A    between atoms: C_21  and  C_22
REMARK   10  A    between atoms: C_26  and  N_27
REMARK                            x       y       z     vdW  Elec       q    Type
REMARK                         _______ _______ _______ _____ _____    ______ ____
ROOT
ATOM      1  C   UNL     1       2.830   5.480  -5.971  0.00  0.00    +0.073 C 
ATOM      2  C   UNL     1       2.599   6.816  -5.093  0.00  0.00    +0.082 C 
ATOM      3  C   UNL     1       3.032   6.149  -3.692  0.00  0.00    +0.073 C 
ATOM      4  C   UNL     1       4.002   5.283  -3.693  0.00  0.00    +0.051 C 
ATOM      5  C   UNL     1       4.324   4.646  -2.377  0.00  0.00    +0.049 C 
ATOM      6  N   UNL     1       4.817   5.039  -4.848  0.00  0.00    -0.221 NA
ATOM      7  C   UNL     1       4.143   5.279  -6.083  0.00  0.00    +0.051 C 
ATOM      8  C   UNL     1       4.887   5.155  -7.345  0.00  0.00    +0.049 C 
ENDROOT
BRANCH   2   9
ATOM      9  C   UNL     1       1.034   6.478  -4.875  0.00  0.00    -0.008 A 
ATOM     10  C   UNL     1       0.728   5.960  -3.620  0.00  0.00    +0.072 A 
ATOM     11  C   UNL     1      -0.582   5.864  -3.231  0.00  0.00    +0.290 A 
ATOM     12  C   UNL     1      -1.525   6.554  -3.959  0.00  0.00    +0.075 A 
ATOM     13  C   UNL     1      -1.162   7.299  -5.074  0.00  0.00    +0.006 A 
ATOM     14  C   UNL     1       0.201   7.549  -5.198  0.00  0.00    -0.003 A 
BRANCH  11  15
ATOM     15  N   UNL     1      -0.958   5.206  -2.039  0.00  0.00    +0.081 N 
ATOM     16  O   UNL     1      -2.278   4.953  -1.742  0.00  0.00    -0.576 OA
ATOM     17  O   UNL     1      -0.075   4.662  -1.352  0.00  0.00    +0.041 OA
ENDBRANCH  11  15
ENDBRANCH   2   9
BRANCH   1  18
ATOM     18  C   UNL     1       2.099   5.440  -7.244  0.00  0.00    +0.339 C 
ATOM     19  O   UNL     1       1.427   4.419  -7.579  0.00  0.00    -0.245 OA
BRANCH  18  20
ATOM     20  O   UNL     1       1.852   6.595  -7.968  0.00  0.00    -0.443 OA
BRANCH  20  21
ATOM     21  C   UNL     1       2.353   6.853  -9.253  0.00  0.00    +0.241 C 
BRANCH  21  22
ATOM     22  C   UNL     1       1.263   6.606 -10.274  0.00  0.00    +0.190 C 
BRANCH  22  24
ATOM     23  C   UNL     1       0.220   5.019 -11.601  0.00  0.00    +0.174 C 
ATOM     24  O   UNL     1       1.140   5.274 -10.613  0.00  0.00    -0.347 OA
ENDBRANCH  22  24
ENDBRANCH  21  22
ENDBRANCH  20  21
ENDBRANCH  18  20
ENDBRANCH   1  18
BRANCH   3  25
ATOM     25  C   UNL     1       3.048   7.161  -2.617  0.00  0.00    +0.339 C 
ATOM     26  O   UNL     1       3.463   8.324  -2.910  0.00  0.00    -0.245 OA
BRANCH  25  27
ATOM     27  O   UNL     1       2.211   7.102  -1.512  0.00  0.00    -0.449 OA
BRANCH  27  28
ATOM     28  C   UNL     1       2.489   7.757  -0.276  0.00  0.00    +0.169 C 
ATOM     29  C   UNL     1       3.717   7.115   0.358  0.00  0.00    +0.047 C 
ATOM     30  C   UNL     1       1.342   7.472   0.686  0.00  0.00    +0.047 C 
ENDBRANCH  27  28
ENDBRANCH  25  27
ENDBRANCH   3  25
TORSDOF 10
ENDMDL
MODEL 8
REMARK VINA RESULT:      -6.4      2.367      3.474
REMARK  Name = 
REMARK  10 active torsions:
REMARK  status: ('A' for Active; 'I' for Inactive)
REMARK    1  A    between atoms: O_2  and  C_3
REMARK    2  A    between atoms: C_3  and  C_4
REMARK    3  A    between atoms: C_4  and  O_5
REMARK    4  A    between atoms: O_5  and  C_6
REMARK    5  A    between atoms: C_6  and  C_8
REMARK    6  A    between atoms: C_14  and  C_15
REMARK    7  A    between atoms: C_15  and  O_17
REMARK    8  A    between atoms: O_17  and  C_18
REMARK    9  A    between atoms: C_21  and  C_22
REMARK   10  A    between atoms: C_26  and  N_27
REMARK                            x       y       z     vdW  Elec       q    Type
REMARK                         _______ _______ _______ _____ _____    ______ ____
ROOT
ATOM      1  C   UNL     1       2.488   6.662  -1.700  0.00  0.00    +0.073 C 
ATOM      2  C   UNL     1       2.797   5.375  -2.625  0.00  0.00    +0.082 C 
ATOM      3  C   UNL     1       3.676   6.180  -3.709  0.00  0.00    +0.073 C 
ATOM      4  C   UNL     1       4.448   7.138  -3.291  0.00  0.00    +0.051 C 
ATOM      5  C   UNL     1       5.196   7.896  -4.344  0.00  0.00    +0.049 C 
ATOM      6  N   UNL     1       4.688   7.383  -1.898  0.00  0.00    -0.221 NA
ATOM      7  C   UNL     1       3.607   6.989  -1.054  0.00  0.00    +0.051 C 
ATOM      8  C   UNL     1       3.754   7.099   0.404  0.00  0.00    +0.049 C 
ENDROOT
BRANCH   2   9
ATOM      9  C   UNL     1       1.426   5.565  -3.459  0.00  0.00    -0.008 A 
ATOM     10  C   UNL     1       0.275   5.212  -2.760  0.00  0.00    +0.072 A 
ATOM     11  C   UNL     1      -0.952   5.555  -3.264  0.00  0.00    +0.290 A 
ATOM     12  C   UNL     1      -0.998   6.489  -4.275  0.00  0.00    +0.075 A 
ATOM     13  C   UNL     1       0.168   7.042  -4.790  0.00  0.00    +0.006 A 
ATOM     14  C   UNL     1       1.309   6.836  -4.020  0.00  0.00    -0.003 A 
BRANCH  11  15
ATOM     15  N   UNL     1      -2.151   5.091  -2.680  0.00  0.00    +0.081 N 
ATOM     16  O   UNL     1      -2.349   5.124  -1.319  0.00  0.00    -0.576 OA
ATOM     17  O   UNL     1      -3.121   4.848  -3.420  0.00  0.00    +0.041 OA
ENDBRANCH  11  15
ENDBRANCH   2   9
BRANCH   1  18
ATOM     18  C   UNL     1       1.304   6.538  -0.840  0.00  0.00    +0.339 C 
ATOM     19  O   UNL     1       1.156   5.539  -0.073  0.00  0.00    -0.245 OA
BRANCH  18  20
ATOM     20  O   UNL     1       0.477   7.622  -0.592  0.00  0.00    -0.443 OA
BRANCH  20  21
ATOM     21  C   UNL     1      -0.222   7.835   0.605  0.00  0.00    +0.241 C 
BRANCH  21  22
ATOM     22  C   UNL     1       0.261   9.118   1.245  0.00  0.00    +0.190 C 
BRANCH  22  24
ATOM     23  C   UNL     1      -1.743   9.954   2.054  0.00  0.00    +0.174 C 
ATOM     24  O   UNL     1      -0.680  10.126   1.200  0.00  0.00    -0.347 OA
ENDBRANCH  22  24
ENDBRANCH  21  22
ENDBRANCH  20  21
ENDBRANCH  18  20
ENDBRANCH   1  18
BRANCH   3  25
ATOM     25  C   UNL     1       4.250   5.253  -4.704  0.00  0.00    +0.339 C 
ATOM     26  O   UNL     1       5.051   4.363  -4.286  0.00  0.00    -0.245 OA
BRANCH  25  27
ATOM     27  O   UNL     1       3.625   4.955  -5.907  0.00  0.00    -0.449 OA
BRANCH  27  28
ATOM     28  C   UNL     1       3.601   5.842  -7.024  0.00  0.00    +0.169 C 
ATOM     29  C   UNL     1       2.316   5.609  -7.812  0.00  0.00    +0.047 C 
ATOM     30  C   UNL     1       4.730   5.452  -7.970  0.00  0.00    +0.047 C 
ENDBRANCH  27  28
ENDBRANCH  25  27
ENDBRANCH   3  25
TORSDOF 10
ENDMDL
MODEL 9
REMARK VINA RESULT:      -6.2      2.254      6.478
REMARK  Name = 
REMARK  10 active torsions:
REMARK  status: ('A' for Active; 'I' for Inactive)
REMARK    1  A    between atoms: O_2  and  C_3
REMARK    2  A    between atoms: C_3  and  C_4
REMARK    3  A    between atoms: C_4  and  O_5
REMARK    4  A    between atoms: O_5  and  C_6
REMARK    5  A    between atoms: C_6  and  C_8
REMARK    6  A    between atoms: C_14  and  C_15
REMARK    7  A    between atoms: C_15  and  O_17
REMARK    8  A    between atoms: O_17  and  C_18
REMARK    9  A    between atoms: C_21  and  C_22
REMARK   10  A    between atoms: C_26  and  N_27
REMARK                            x       y       z     vdW  Elec       q    Type
REMARK                         _______ _______ _______ _____ _____    ______ ____
ROOT
ATOM      1  C   UNL     1       0.543   5.951  -5.684  0.00  0.00    +0.073 C 
ATOM      2  C   UNL     1       0.765   5.212  -4.265  0.00  0.00    +0.082 C 
ATOM      3  C   UNL     1      -0.066   6.291  -3.405  0.00  0.00    +0.073 C 
ATOM      4  C   UNL     1      -1.128   6.819  -3.936  0.00  0.00    +0.051 C 
ATOM      5  C   UNL     1      -1.829   7.861  -3.122  0.00  0.00    +0.049 C 
ATOM      6  N   UNL     1      -1.688   6.350  -5.171  0.00  0.00    -0.221 NA
ATOM      7  C   UNL     1      -0.726   5.771  -6.051  0.00  0.00    +0.051 C 
ATOM      8  C   UNL     1      -1.176   5.167  -7.314  0.00  0.00    +0.049 C 
ENDROOT
BRANCH   2   9
ATOM      9  C   UNL     1       2.173   5.967  -4.021  0.00  0.00    -0.008 A 
ATOM     10  C   UNL     1       2.229   6.713  -2.847  0.00  0.00    +0.072 A 
ATOM     11  C   UNL     1       3.435   7.194  -2.410  0.00  0.00    +0.290 A 
ATOM     12  C   UNL     1       4.580   6.677  -2.973  0.00  0.00    +0.075 A 
ATOM     13  C   UNL     1       4.513   5.718  -3.976  0.00  0.00    +0.006 A 
ATOM     14  C   UNL     1       3.270   5.112  -4.131  0.00  0.00    -0.003 A 
BRANCH  11  15
ATOM     15  N   UNL     1       3.529   8.083  -1.316  0.00  0.00    +0.081 N 
ATOM     16  O   UNL     1       3.643   9.442  -1.501  0.00  0.00    -0.576 OA
ATOM     17  O   UNL     1       3.293   7.652  -0.173  0.00  0.00    +0.041 OA
ENDBRANCH  11  15
ENDBRANCH   2   9
BRANCH   1  18
ATOM     18  C   UNL     1       1.528   5.615  -6.720  0.00  0.00    +0.339 C 
ATOM     19  O   UNL     1       1.735   4.411  -7.060  0.00  0.00    -0.245 OA
BRANCH  18  20
ATOM     20  O   UNL     1       2.031   6.582  -7.575  0.00  0.00    -0.443 OA
BRANCH  20  21
ATOM     21  C   UNL     1       2.954   6.336  -8.603  0.00  0.00    +0.241 C 
BRANCH  21  22
ATOM     22  C   UNL     1       2.253   6.446  -9.940  0.00  0.00    +0.190 C 
BRANCH  22  24
ATOM     23  C   UNL     1       0.033   6.535 -10.599  0.00  0.00    +0.174 C 
ATOM     24  O   UNL     1       1.042   7.101  -9.857  0.00  0.00    -0.347 OA
ENDBRANCH  22  24
ENDBRANCH  21  22
ENDBRANCH  20  21
ENDBRANCH  18  20
ENDBRANCH   1  18
BRANCH   3  25
ATOM     25  C   UNL     1      -0.174   5.861  -1.997  0.00  0.00    +0.339 C 
ATOM     26  O   UNL     1      -0.093   4.618  -1.753  0.00  0.00    -0.245 OA
BRANCH  25  27
ATOM     27  O   UNL     1       0.147   6.686  -0.928  0.00  0.00    -0.449 OA
BRANCH  27  28
ATOM     28  C   UNL     1      -0.406   6.537   0.378  0.00  0.00    +0.169 C 
ATOM     29  C   UNL     1      -1.900   6.833   0.318  0.00  0.00    +0.047 C 
ATOM     30  C   UNL     1       0.184   7.619   1.274  0.00  0.00    +0.047 C 
ENDBRANCH  27  28
ENDBRANCH  25  27
ENDBRANCH   3  25
TORSDOF 10
ENDMDL
