MODEL 1
REMARK VINA RESULT:      -7.5      0.000      0.000
REMARK  Name = 
REMARK  16 active torsions:
REMARK  status: ('A' for Active; 'I' for Inactive)
REMARK    1  A    between atoms: C_2  and  C_3
REMARK    2  A    between atoms: C_5  and  C_6
REMARK    3  A    between atoms: C_6  and  C_8
REMARK    4  A    between atoms: C_8  and  N_9
REMARK    5  A    between atoms: N_9  and  C_10
REMARK    6  A    between atoms: C_10  and  C_11
REMARK    7  A    between atoms: C_11  and  C_12
REMARK    8  A    between atoms: C_12  and  C_13
REMARK    9  A    between atoms: C_13  and  C_14
REMARK   10  A    between atoms: C_14  and  C_15
REMARK   11  A    between atoms: C_15  and  O_16
REMARK   12  A    between atoms: O_16  and  C_17
REMARK   13  A    between atoms: C_17  and  C_18
REMARK   14  A    between atoms: C_18  and  O_19
REMARK   15  A    between atoms: O_19  and  C_20
REMARK   16  A    between atoms: C_20  and  C_21
REMARK                            x       y       z     vdW  Elec       q    Type
REMARK                         _______ _______ _______ _____ _____    ______ ____
ROOT
ATOM      1  C   UNL     1       3.818   6.911  -5.090  0.00  0.00    +0.002 C 
ENDROOT
BRANCH   1   2
ATOM      2  C   UNL     1       4.354   5.918  -6.087  0.00  0.00    +0.019 C 
BRANCH   2   3
ATOM      3  C   UNL     1       3.671   6.130  -7.433  0.00  0.00    +0.089 C 
BRANCH   3   4
ATOM      4  N   UNL     1       3.466   4.811  -8.009  0.00  0.00    -0.215 NA
BRANCH   4   5
ATOM      5  C   UNL     1       4.195   4.773  -9.256  0.00  0.00    +0.126 C 
BRANCH   5   6
ATOM      6  C   UNL     1       4.197   6.333  -9.801  0.00  0.00    +0.192 C 
ATOM      7  O   UNL     1       3.524   5.927 -11.103  0.00  0.00    -0.217 OA
BRANCH   6  13
ATOM      8  C   UNL     1       6.916   5.346 -12.276  0.00  0.00    +0.049 A 
ATOM      9  C   UNL     1       8.072   5.486 -11.519  0.00  0.00    +0.194 A 
ATOM     10  O   UNL     1       9.311   5.726 -12.124  0.00  0.00    -0.287 OA
ATOM     11  C   UNL     1       7.907   5.549 -10.140  0.00  0.00    +0.042 A 
ATOM     12  C   UNL     1       6.661   5.804  -9.578  0.00  0.00    +0.001 A 
ATOM     13  C   UNL     1       5.670   6.155 -10.449  0.00  0.00    +0.009 A 
ATOM     14  C   UNL     1       5.669   5.528 -11.688  0.00  0.00    -0.000 A 
BRANCH   8  16
ATOM     15  O   UNL     1       6.955   5.671 -14.161  0.00  0.00    -0.215 OA
ATOM     16  C   UNL     1       7.087   5.584 -13.745  0.00  0.00    +0.212 C 
ENDBRANCH   8  16
ENDBRANCH   6  13
ENDBRANCH   5   6
ENDBRANCH   4   5
ENDBRANCH   3   4
ENDBRANCH   2   3
ENDBRANCH   1   2
BRANCH   1  17
ATOM     17  C   UNL     1       4.900   7.798  -4.534  0.00  0.00    +0.003 C 
BRANCH  17  18
ATOM     18  C   UNL     1       5.410   7.199  -3.230  0.00  0.00    +0.032 C 
BRANCH  18  19
ATOM     19  C   UNL     1       4.298   6.395  -2.609  0.00  0.00    +0.142 C 
BRANCH  19  20
ATOM     20  O   UNL     1       3.973   6.882  -1.352  0.00  0.00    -0.351 OA
BRANCH  20  21
ATOM     21  C   UNL     1       2.593   6.856  -1.110  0.00  0.00    +0.174 C 
BRANCH  21  22
ATOM     22  C   UNL     1       1.962   5.869  -2.059  0.00  0.00    +0.175 C 
BRANCH  22  23
ATOM     23  O   UNL     1       0.829   6.422  -2.673  0.00  0.00    -0.346 OA
BRANCH  23  24
ATOM     24  C   UNL     1      -0.124   5.410  -2.831  0.00  0.00    +0.170 C 
BRANCH  24  25
ATOM     25  C   UNL     1      -0.945   5.710  -4.032  0.00  0.00    +0.028 A 
ATOM     26  C   UNL     1      -0.531   5.274  -5.279  0.00  0.00    +0.057 A 
ATOM     27 CL   UNL     1       1.025   4.499  -5.486  0.00  0.00    -0.082 Cl
ATOM     28  C   UNL     1      -1.395   5.471  -6.350  0.00  0.00    +0.011 A 
ATOM     29  C   UNL     1      -2.449   6.363  -6.204  0.00  0.00    +0.002 A 
ATOM     30  C   UNL     1      -2.710   6.947  -4.971  0.00  0.00    +0.011 A 
ATOM     31  C   UNL     1      -2.153   6.367  -3.844  0.00  0.00    +0.057 A 
ATOM     32 CL   UNL     1      -3.012   6.291  -2.312  0.00  0.00    -0.082 Cl
ENDBRANCH  24  25
ENDBRANCH  23  24
ENDBRANCH  22  23
ENDBRANCH  21  22
ENDBRANCH  20  21
ENDBRANCH  19  20
ENDBRANCH  18  19
ENDBRANCH  17  18
ENDBRANCH   1  17
TORSDOF 16
ENDMDL
MODEL 2
REMARK VINA RESULT:      -7.4      1.437      2.596
REMARK  Name = 
REMARK  16 active torsions:
REMARK  status: ('A' for Active; 'I' for Inactive)
REMARK    1  A    between atoms: C_2  and  C_3
REMARK    2  A    between atoms: C_5  and  C_6
REMARK    3  A    between atoms: C_6  and  C_8
REMARK    4  A    between atoms: C_8  and  N_9
REMARK    5  A    between atoms: N_9  and  C_10
REMARK    6  A    between atoms: C_10  and  C_11
REMARK    7  A    between atoms: C_11  and  C_12
REMARK    8  A    between atoms: C_12  and  C_13
REMARK    9  A    between atoms: C_13  and  C_14
REMARK   10  A    between atoms: C_14  and  C_15
REMARK   11  A    between atoms: C_15  and  O_16
REMARK   12  A    between atoms: O_16  and  C_17
REMARK   13  A    between atoms: C_17  and  C_18
REMARK   14  A    between atoms: C_18  and  O_19
REMARK   15  A    between atoms: O_19  and  C_20
REMARK   16  A    between atoms: C_20  and  C_21
REMARK                            x       y       z     vdW  Elec       q    Type
REMARK                         _______ _______ _______ _____ _____    ______ ____
ROOT
ATOM      1  C   UNL     1       4.484   6.048  -5.723  0.00  0.00    +0.002 C 
ENDROOT
BRANCH   1   2
ATOM      2  C   UNL     1       3.810   6.076  -7.070  0.00  0.00    +0.019 C 
BRANCH   2   3
ATOM      3  C   UNL     1       2.681   7.100  -7.053  0.00  0.00    +0.089 C 
BRANCH   3   4
ATOM      4  N   UNL     1       2.243   7.260  -8.430  0.00  0.00    -0.215 NA
BRANCH   4   5
ATOM      5  C   UNL     1       3.364   6.921  -9.277  0.00  0.00    +0.126 C 
BRANCH   5   6
ATOM      6  C   UNL     1       2.691   6.366 -10.680  0.00  0.00    +0.192 C 
ATOM      7  O   UNL     1       2.388   5.013 -10.053  0.00  0.00    -0.217 OA
BRANCH   6  13
ATOM      8  C   UNL     1       6.467   6.006 -11.006  0.00  0.00    +0.049 A 
ATOM      9  C   UNL     1       6.598   5.343 -12.219  0.00  0.00    +0.194 A 
ATOM     10  O   UNL     1       7.725   4.562 -12.500  0.00  0.00    -0.287 OA
ATOM     11  C   UNL     1       5.487   5.352 -13.055  0.00  0.00    +0.042 A 
ATOM     12  C   UNL     1       4.229   5.696 -12.573  0.00  0.00    +0.001 A 
ATOM     13  C   UNL     1       4.126   5.849 -11.220  0.00  0.00    +0.009 A 
ATOM     14  C   UNL     1       5.213   6.416 -10.565  0.00  0.00    -0.000 A 
BRANCH   8  16
ATOM     15  O   UNL     1       7.723   5.658  -9.605  0.00  0.00    -0.215 OA
ATOM     16  C   UNL     1       7.550   5.728 -10.009  0.00  0.00    +0.212 C 
ENDBRANCH   8  16
ENDBRANCH   6  13
ENDBRANCH   5   6
ENDBRANCH   4   5
ENDBRANCH   3   4
ENDBRANCH   2   3
ENDBRANCH   1   2
BRANCH   1  17
ATOM     17  C   UNL     1       4.190   7.284  -4.916  0.00  0.00    +0.003 C 
BRANCH  17  18
ATOM     18  C   UNL     1       3.827   6.873  -3.495  0.00  0.00    +0.032 C 
BRANCH  18  19
ATOM     19  C   UNL     1       4.540   5.585  -3.176  0.00  0.00    +0.142 C 
BRANCH  19  20
ATOM     20  O   UNL     1       3.740   4.748  -2.414  0.00  0.00    -0.351 OA
BRANCH  20  21
ATOM     21  C   UNL     1       3.302   5.360  -1.231  0.00  0.00    +0.174 C 
BRANCH  21  22
ATOM     22  C   UNL     1       1.859   4.984  -1.007  0.00  0.00    +0.175 C 
BRANCH  22  23
ATOM     23  O   UNL     1       1.002   5.906  -1.624  0.00  0.00    -0.346 OA
BRANCH  23  24
ATOM     24  C   UNL     1      -0.190   5.249  -1.949  0.00  0.00    +0.170 C 
BRANCH  24  25
ATOM     25  C   UNL     1      -0.884   6.016  -3.015  0.00  0.00    +0.028 A 
ATOM     26  C   UNL     1      -1.728   7.059  -2.678  0.00  0.00    +0.057 A 
ATOM     27 CL   UNL     1      -2.108   7.399  -1.004  0.00  0.00    -0.082 Cl
ATOM     28  C   UNL     1      -2.254   7.823  -3.714  0.00  0.00    +0.011 A 
ATOM     29  C   UNL     1      -2.192   7.326  -5.010  0.00  0.00    +0.002 A 
ATOM     30  C   UNL     1      -1.502   6.151  -5.279  0.00  0.00    +0.011 A 
ATOM     31  C   UNL     1      -0.599   5.694  -4.335  0.00  0.00    +0.057 A 
ATOM     32 CL   UNL     1       0.917   4.926  -4.788  0.00  0.00    -0.082 Cl
ENDBRANCH  24  25
ENDBRANCH  23  24
ENDBRANCH  22  23
ENDBRANCH  21  22
ENDBRANCH  20  21
ENDBRANCH  19  20
ENDBRANCH  18  19
ENDBRANCH  17  18
ENDBRANCH   1  17
TORSDOF 16
ENDMDL
MODEL 3
REMARK VINA RESULT:      -7.4      1.351      2.012
REMARK  Name = 
REMARK  16 active torsions:
REMARK  status: ('A' for Active; 'I' for Inactive)
REMARK    1  A    between atoms: C_2  and  C_3
REMARK    2  A    between atoms: C_5  and  C_6
REMARK    3  A    between atoms: C_6  and  C_8
REMARK    4  A    between atoms: C_8  and  N_9
REMARK    5  A    between atoms: N_9  and  C_10
REMARK    6  A    between atoms: C_10  and  C_11
REMARK    7  A    between atoms: C_11  and  C_12
REMARK    8  A    between atoms: C_12  and  C_13
REMARK    9  A    between atoms: C_13  and  C_14
REMARK   10  A    between atoms: C_14  and  C_15
REMARK   11  A    between atoms: C_15  and  O_16
REMARK   12  A    between atoms: O_16  and  C_17
REMARK   13  A    between atoms: C_17  and  C_18
REMARK   14  A    between atoms: C_18  and  O_19
REMARK   15  A    between atoms: O_19  and  C_20
REMARK   16  A    between atoms: C_20  and  C_21
REMARK                            x       y       z     vdW  Elec       q    Type
REMARK                         _______ _______ _______ _____ _____    ______ ____
ROOT
ATOM      1  C   UNL     1       3.293   7.128  -6.546  0.00  0.00    +0.002 C 
ENDROOT
BRANCH   1   2
ATOM      2  C   UNL     1       1.914   7.375  -7.098  0.00  0.00    +0.019 C 
BRANCH   2   3
ATOM      3  C   UNL     1       1.863   6.937  -8.557  0.00  0.00    +0.089 C 
BRANCH   3   4
ATOM      4  N   UNL     1       1.728   5.490  -8.553  0.00  0.00    -0.215 NA
BRANCH   4   5
ATOM      5  C   UNL     1       2.403   4.996  -9.732  0.00  0.00    +0.126 C 
BRANCH   5   6
ATOM      6  C   UNL     1       2.585   6.317 -10.708  0.00  0.00    +0.192 C 
ATOM      7  O   UNL     1       1.923   5.602 -11.876  0.00  0.00    -0.217 OA
BRANCH   6  13
ATOM      8  C   UNL     1       6.377   6.006 -10.827  0.00  0.00    +0.049 A 
ATOM      9  C   UNL     1       6.585   5.369 -12.044  0.00  0.00    +0.194 A 
ATOM     10  O   UNL     1       7.735   4.607 -12.276  0.00  0.00    -0.287 OA
ATOM     11  C   UNL     1       5.522   5.383 -12.941  0.00  0.00    +0.042 A 
ATOM     12  C   UNL     1       4.236   5.703 -12.524  0.00  0.00    +0.001 A 
ATOM     13  C   UNL     1       4.054   5.828 -11.176  0.00  0.00    +0.009 A 
ATOM     14  C   UNL     1       5.095   6.392 -10.450  0.00  0.00    -0.000 A 
BRANCH   8  16
ATOM     15  O   UNL     1       7.647   5.798  -9.411  0.00  0.00    -0.215 OA
ATOM     16  C   UNL     1       7.406   5.719  -9.776  0.00  0.00    +0.212 C 
ENDBRANCH   8  16
ENDBRANCH   6  13
ENDBRANCH   5   6
ENDBRANCH   4   5
ENDBRANCH   3   4
ENDBRANCH   2   3
ENDBRANCH   1   2
BRANCH   1  17
ATOM     17  C   UNL     1       3.327   7.213  -5.044  0.00  0.00    +0.003 C 
BRANCH  17  18
ATOM     18  C   UNL     1       4.769   7.410  -4.592  0.00  0.00    +0.032 C 
BRANCH  18  19
ATOM     19  C   UNL     1       4.871   7.015  -3.142  0.00  0.00    +0.142 C 
BRANCH  19  20
ATOM     20  O   UNL     1       3.619   6.973  -2.548  0.00  0.00    -0.351 OA
BRANCH  20  21
ATOM     21  C   UNL     1       3.577   6.095  -1.456  0.00  0.00    +0.174 C 
BRANCH  21  22
ATOM     22  C   UNL     1       2.266   5.351  -1.493  0.00  0.00    +0.175 C 
BRANCH  22  23
ATOM     23  O   UNL     1       1.321   6.044  -2.263  0.00  0.00    -0.346 OA
BRANCH  23  24
ATOM     24  C   UNL     1       0.226   5.201  -2.477  0.00  0.00    +0.170 C 
BRANCH  24  25
ATOM     25  C   UNL     1      -0.649   5.807  -3.514  0.00  0.00    +0.028 A 
ATOM     26  C   UNL     1      -0.461   5.491  -4.848  0.00  0.00    +0.057 A 
ATOM     27 CL   UNL     1       0.890   4.498  -5.353  0.00  0.00    -0.082 Cl
ATOM     28  C   UNL     1      -1.382   5.985  -5.764  0.00  0.00    +0.011 A 
ATOM     29  C   UNL     1      -2.228   7.015  -5.372  0.00  0.00    +0.002 A 
ATOM     30  C   UNL     1      -2.240   7.451  -4.053  0.00  0.00    +0.011 A 
ATOM     31  C   UNL     1      -1.684   6.628  -3.089  0.00  0.00    +0.057 A 
ATOM     32 CL   UNL     1      -2.372   6.481  -1.478  0.00  0.00    -0.082 Cl
ENDBRANCH  24  25
ENDBRANCH  23  24
ENDBRANCH  22  23
ENDBRANCH  21  22
ENDBRANCH  20  21
ENDBRANCH  19  20
ENDBRANCH  18  19
ENDBRANCH  17  18
ENDBRANCH   1  17
TORSDOF 16
ENDMDL
MODEL 4
REMARK VINA RESULT:      -7.4      2.152      4.849
REMARK  Name = 
REMARK  16 active torsions:
REMARK  status: ('A' for Active; 'I' for Inactive)
REMARK    1  A    between atoms: C_2  and  C_3
REMARK    2  A    between atoms: C_5  and  C_6
REMARK    3  A    between atoms: C_6  and  C_8
REMARK    4  A    between atoms: C_8  and  N_9
REMARK    5  A    between atoms: N_9  and  C_10
REMARK    6  A    between atoms: C_10  and  C_11
REMARK    7  A    between atoms: C_11  and  C_12
REMARK    8  A    between atoms: C_12  and  C_13
REMARK    9  A    between atoms: C_13  and  C_14
REMARK   10  A    between atoms: C_14  and  C_15
REMARK   11  A    between atoms: C_15  and  O_16
REMARK   12  A    between atoms: O_16  and  C_17
REMARK   13  A    between atoms: C_17  and  C_18
REMARK   14  A    between atoms: C_18  and  O_19
REMARK   15  A    between atoms: O_19  and  C_20
REMARK   16  A    between atoms: C_20  and  C_21
REMARK                            x       y       z     vdW  Elec       q    Type
REMARK                         _______ _______ _______ _____ _____    ______ ____
ROOT
ATOM      1  C   UNL     1      -2.098   5.538  -5.948  0.00  0.00    +0.002 C 
ENDROOT
BRANCH   1   2
ATOM      2  C   UNL     1      -0.689   5.341  -6.440  0.00  0.00    +0.019 C 
BRANCH   2   3
ATOM      3  C   UNL     1      -0.551   5.930  -7.838  0.00  0.00    +0.089 C 
BRANCH   3   4
ATOM      4  N   UNL     1       0.424   5.112  -8.542  0.00  0.00    -0.215 NA
BRANCH   4   5
ATOM      5  C   UNL     1       1.734   5.597  -8.172  0.00  0.00    +0.126 C 
BRANCH   5   6
ATOM      6  C   UNL     1       1.982   6.930  -9.116  0.00  0.00    +0.192 C 
ATOM      7  O   UNL     1       1.738   6.131 -10.387  0.00  0.00    -0.217 OA
BRANCH   6  13
ATOM      8  C   UNL     1       5.523   6.746 -10.502  0.00  0.00    +0.049 A 
ATOM      9  C   UNL     1       6.162   5.930  -9.576  0.00  0.00    +0.194 A 
ATOM     10  O   UNL     1       7.546   5.995  -9.386  0.00  0.00    -0.287 OA
ATOM     11  C   UNL     1       5.342   5.182  -8.738  0.00  0.00    +0.042 A 
ATOM     12  C   UNL     1       3.993   5.486  -8.597  0.00  0.00    +0.001 A 
ATOM     13  C   UNL     1       3.573   6.645  -9.184  0.00  0.00    +0.009 A 
ATOM     14  C   UNL     1       4.157   6.984 -10.398  0.00  0.00    -0.000 A 
BRANCH   8  16
ATOM     15  O   UNL     1       6.624   7.940 -11.513  0.00  0.00    -0.215 OA
ATOM     16  C   UNL     1       6.404   7.754 -11.174  0.00  0.00    +0.212 C 
ENDBRANCH   8  16
ENDBRANCH   6  13
ENDBRANCH   5   6
ENDBRANCH   4   5
ENDBRANCH   3   4
ENDBRANCH   2   3
ENDBRANCH   1   2
BRANCH   1  17
ATOM     17  C   UNL     1      -2.291   6.883  -5.300  0.00  0.00    +0.003 C 
BRANCH  17  18
ATOM     18  C   UNL     1      -2.850   6.680  -3.897  0.00  0.00    +0.032 C 
BRANCH  18  19
ATOM     19  C   UNL     1      -2.903   5.202  -3.615  0.00  0.00    +0.142 C 
BRANCH  19  20
ATOM     20  O   UNL     1      -2.594   4.936  -2.290  0.00  0.00    -0.351 OA
BRANCH  20  21
ATOM     21  C   UNL     1      -1.494   5.678  -1.840  0.00  0.00    +0.174 C 
BRANCH  21  22
ATOM     22  C   UNL     1      -0.235   5.013  -2.335  0.00  0.00    +0.175 C 
BRANCH  22  23
ATOM     23  O   UNL     1       0.684   5.966  -2.798  0.00  0.00    -0.346 OA
BRANCH  23  24
ATOM     24  C   UNL     1       1.943   5.651  -2.279  0.00  0.00    +0.170 C 
BRANCH  24  25
ATOM     25  C   UNL     1       2.978   6.377  -3.059  0.00  0.00    +0.028 A 
ATOM     26  C   UNL     1       3.805   7.290  -2.429  0.00  0.00    +0.057 A 
ATOM     27 CL   UNL     1       3.554   7.716  -0.749  0.00  0.00    -0.082 Cl
ATOM     28  C   UNL     1       4.836   7.849  -3.175  0.00  0.00    +0.011 A 
ATOM     29  C   UNL     1       4.797   7.737  -4.559  0.00  0.00    +0.002 A 
ATOM     30  C   UNL     1       3.816   6.970  -5.174  0.00  0.00    +0.011 A 
ATOM     31  C   UNL     1       3.124   6.053  -4.401  0.00  0.00    +0.057 A 
ATOM     32 CL   UNL     1       2.634   4.485  -5.027  0.00  0.00    -0.082 Cl
ENDBRANCH  24  25
ENDBRANCH  23  24
ENDBRANCH  22  23
ENDBRANCH  21  22
ENDBRANCH  20  21
ENDBRANCH  19  20
ENDBRANCH  18  19
ENDBRANCH  17  18
ENDBRANCH   1  17
TORSDOF 16
ENDMDL
MODEL 5
REMARK VINA RESULT:      -7.4      3.448      9.094
REMARK  Name = 
REMARK  16 active torsions:
REMARK  status: ('A' for Active; 'I' for Inactive)
REMARK    1  A    between atoms: C_2  and  C_3
REMARK    2  A    between atoms: C_5  and  C_6
REMARK    3  A    between atoms: C_6  and  C_8
REMARK    4  A    between atoms: C_8  and  N_9
REMARK    5  A    between atoms: N_9  and  C_10
REMARK    6  A    between atoms: C_10  and  C_11
REMARK    7  A    between atoms: C_11  and  C_12
REMARK    8  A    between atoms: C_12  and  C_13
REMARK    9  A    between atoms: C_13  and  C_14
REMARK   10  A    between atoms: C_14  and  C_15
REMARK   11  A    between atoms: C_15  and  O_16
REMARK   12  A    between atoms: O_16  and  C_17
REMARK   13  A    between atoms: C_17  and  C_18
REMARK   14  A    between atoms: C_18  and  O_19
REMARK   15  A    between atoms: O_19  and  C_20
REMARK   16  A    between atoms: C_20  and  C_21
REMARK                            x       y       z     vdW  Elec       q    Type
REMARK                         _______ _______ _______ _____ _____    ______ ____
ROOT
ATOM      1  C   UNL     1       4.326   4.998  -3.244  0.00  0.00    +0.002 C 
ENDROOT
BRANCH   1   2
ATOM      2  C   UNL     1       4.059   4.842  -1.770  0.00  0.00    +0.019 C 
BRANCH   2   3
ATOM      3  C   UNL     1       3.581   6.171  -1.196  0.00  0.00    +0.089 C 
BRANCH   3   4
ATOM      4  N   UNL     1       2.243   5.943  -0.674  0.00  0.00    -0.215 NA
BRANCH   4   5
ATOM      5  C   UNL     1       1.310   6.401  -1.678  0.00  0.00    +0.126 C 
BRANCH   5   6
ATOM      6  C   UNL     1      -0.099   5.603  -1.351  0.00  0.00    +0.192 C 
ATOM      7  O   UNL     1       0.602   4.254  -1.392  0.00  0.00    -0.217 OA
BRANCH   6  13
ATOM      8  C   UNL     1       0.354   5.238  -5.113  0.00  0.00    +0.049 A 
ATOM      9  C   UNL     1      -0.872   5.670  -5.603  0.00  0.00    +0.194 A 
ATOM     10  O   UNL     1      -1.346   5.244  -6.849  0.00  0.00    -0.287 OA
ATOM     11  C   UNL     1      -1.669   6.397  -4.726  0.00  0.00    +0.042 A 
ATOM     12  C   UNL     1      -1.418   6.395  -3.359  0.00  0.00    +0.001 A 
ATOM     13  C   UNL     1      -0.470   5.515  -2.924  0.00  0.00    +0.009 A 
ATOM     14  C   UNL     1       0.627   5.310  -3.751  0.00  0.00    -0.000 A 
BRANCH   8  16
ATOM     15  O   UNL     1       1.310   3.863  -6.038  0.00  0.00    -0.215 OA
ATOM     16  C   UNL     1       1.050   4.215  -5.958  0.00  0.00    +0.212 C 
ENDBRANCH   8  16
ENDBRANCH   6  13
ENDBRANCH   5   6
ENDBRANCH   4   5
ENDBRANCH   3   4
ENDBRANCH   2   3
ENDBRANCH   1   2
BRANCH   1  17
ATOM     17  C   UNL     1       4.551   6.435  -3.631  0.00  0.00    +0.003 C 
BRANCH  17  18
ATOM     18  C   UNL     1       4.035   6.652  -5.048  0.00  0.00    +0.032 C 
BRANCH  18  19
ATOM     19  C   UNL     1       4.426   5.462  -5.884  0.00  0.00    +0.142 C 
BRANCH  19  20
ATOM     20  O   UNL     1       4.537   5.807  -7.222  0.00  0.00    -0.351 OA
BRANCH  20  21
ATOM     21  C   UNL     1       3.458   6.585  -7.663  0.00  0.00    +0.174 C 
BRANCH  21  22
ATOM     22  C   UNL     1       3.192   6.253  -9.109  0.00  0.00    +0.175 C 
BRANCH  22  23
ATOM     23  O   UNL     1       4.322   6.515  -9.897  0.00  0.00    -0.346 OA
BRANCH  23  24
ATOM     24  C   UNL     1       4.747   5.311 -10.469  0.00  0.00    +0.170 C 
BRANCH  24  25
ATOM     25  C   UNL     1       5.887   5.591 -11.380  0.00  0.00    +0.028 A 
ATOM     26  C   UNL     1       7.179   5.610 -10.885  0.00  0.00    +0.057 A 
ATOM     27 CL   UNL     1       7.483   5.456  -9.167  0.00  0.00    -0.082 Cl
ATOM     28  C   UNL     1       8.218   5.752 -11.797  0.00  0.00    +0.011 A 
ATOM     29  C   UNL     1       7.924   6.192 -13.082  0.00  0.00    +0.002 A 
ATOM     30  C   UNL     1       6.604   6.362 -13.482  0.00  0.00    +0.011 A 
ATOM     31  C   UNL     1       5.612   5.756 -12.730  0.00  0.00    +0.057 A 
ATOM     32 CL   UNL     1       4.178   5.057 -13.469  0.00  0.00    -0.082 Cl
ENDBRANCH  24  25
ENDBRANCH  23  24
ENDBRANCH  22  23
ENDBRANCH  21  22
ENDBRANCH  20  21
ENDBRANCH  19  20
ENDBRANCH  18  19
ENDBRANCH  17  18
ENDBRANCH   1  17
TORSDOF 16
ENDMDL
MODEL 6
REMARK VINA RESULT:      -7.3      3.532      8.991
REMARK  Name = 
REMARK  16 active torsions:
REMARK  status: ('A' for Active; 'I' for Inactive)
REMARK    1  A    between atoms: C_2  and  C_3
REMARK    2  A    between atoms: C_5  and  C_6
REMARK    3  A    between atoms: C_6  and  C_8
REMARK    4  A    between atoms: C_8  and  N_9
REMARK    5  A    between atoms: N_9  and  C_10
REMARK    6  A    between atoms: C_10  and  C_11
REMARK    7  A    between atoms: C_11  and  C_12
REMARK    8  A    between atoms: C_12  and  C_13
REMARK    9  A    between atoms: C_13  and  C_14
REMARK   10  A    between atoms: C_14  and  C_15
REMARK   11  A    between atoms: C_15  and  O_16
REMARK   12  A    between atoms: O_16  and  C_17
REMARK   13  A    between atoms: C_17  and  C_18
REMARK   14  A    between atoms: C_18  and  O_19
REMARK   15  A    between atoms: O_19  and  C_20
REMARK   16  A    between atoms: C_20  and  C_21
REMARK                            x       y       z     vdW  Elec       q    Type
REMARK                         _______ _______ _______ _____ _____    ______ ____
ROOT
ATOM      1  C   UNL     1       3.866   7.121  -2.840  0.00  0.00    +0.002 C 
ENDROOT
BRANCH   1   2
ATOM      2  C   UNL     1       3.153   7.047  -1.516  0.00  0.00    +0.019 C 
BRANCH   2   3
ATOM      3  C   UNL     1       2.918   5.588  -1.144  0.00  0.00    +0.089 C 
BRANCH   3   4
ATOM      4  N   UNL     1       1.582   5.512  -0.575  0.00  0.00    -0.215 NA
BRANCH   4   5
ATOM      5  C   UNL     1       0.698   5.054  -1.622  0.00  0.00    +0.126 C 
BRANCH   5   6
ATOM      6  C   UNL     1      -0.508   6.182  -1.690  0.00  0.00    +0.192 C 
ATOM      7  O   UNL     1      -1.557   5.151  -1.303  0.00  0.00    -0.217 OA
BRANCH   6  13
ATOM      8  C   UNL     1       0.252   5.314  -5.318  0.00  0.00    +0.049 A 
ATOM      9  C   UNL     1      -0.903   5.726  -5.970  0.00  0.00    +0.194 A 
ATOM     10  O   UNL     1      -1.288   5.160  -7.190  0.00  0.00    -0.287 OA
ATOM     11  C   UNL     1      -1.737   6.590  -5.269  0.00  0.00    +0.042 A 
ATOM     12  C   UNL     1      -1.606   6.756  -3.895  0.00  0.00    +0.001 A 
ATOM     13  C   UNL     1      -0.744   5.904  -3.266  0.00  0.00    +0.009 A 
ATOM     14  C   UNL     1       0.409   5.552  -3.956  0.00  0.00    -0.000 A 
BRANCH   8  16
ATOM     15  O   UNL     1       1.267   3.837  -5.987  0.00  0.00    -0.215 OA
ATOM     16  C   UNL     1       0.967   4.164  -5.958  0.00  0.00    +0.212 C 
ENDBRANCH   8  16
ENDBRANCH   6  13
ENDBRANCH   5   6
ENDBRANCH   4   5
ENDBRANCH   3   4
ENDBRANCH   2   3
ENDBRANCH   1   2
BRANCH   1  17
ATOM     17  C   UNL     1       4.066   5.761  -3.453  0.00  0.00    +0.003 C 
BRANCH  17  18
ATOM     18  C   UNL     1       4.213   5.914  -4.961  0.00  0.00    +0.032 C 
BRANCH  18  19
ATOM     19  C   UNL     1       3.355   7.069  -5.407  0.00  0.00    +0.142 C 
BRANCH  19  20
ATOM     20  O   UNL     1       3.573   7.364  -6.744  0.00  0.00    -0.351 OA
BRANCH  20  21
ATOM     21  C   UNL     1       3.368   6.255  -7.576  0.00  0.00    +0.174 C 
BRANCH  21  22
ATOM     22  C   UNL     1       3.117   6.750  -8.977  0.00  0.00    +0.175 C 
BRANCH  22  23
ATOM     23  O   UNL     1       4.308   6.780  -9.716  0.00  0.00    -0.346 OA
BRANCH  23  24
ATOM     24  C   UNL     1       4.593   5.480 -10.145  0.00  0.00    +0.170 C 
BRANCH  24  25
ATOM     25  C   UNL     1       5.509   5.550 -11.312  0.00  0.00    +0.028 A 
ATOM     26  C   UNL     1       4.995   5.729 -12.585  0.00  0.00    +0.057 A 
ATOM     27 CL   UNL     1       3.266   5.725 -12.861  0.00  0.00    -0.082 Cl
ATOM     28  C   UNL     1       5.898   5.913 -13.625  0.00  0.00    +0.011 A 
ATOM     29  C   UNL     1       7.233   5.586 -13.418  0.00  0.00    +0.002 A 
ATOM     30  C   UNL     1       7.676   5.207 -12.158  0.00  0.00    +0.011 A 
ATOM     31  C   UNL     1       6.875   5.503 -11.068  0.00  0.00    +0.057 A 
ATOM     32 CL   UNL     1       7.549   5.988  -9.518  0.00  0.00    -0.082 Cl
ENDBRANCH  24  25
ENDBRANCH  23  24
ENDBRANCH  22  23
ENDBRANCH  21  22
ENDBRANCH  20  21
ENDBRANCH  19  20
ENDBRANCH  18  19
ENDBRANCH  17  18
ENDBRANCH   1  17
TORSDOF 16
ENDMDL
MODEL 7
REMARK VINA RESULT:      -7.2      3.732      7.983
REMARK  Name = 
REMARK  16 active torsions:
REMARK  status: ('A' for Active; 'I' for Inactive)
REMARK    1  A    between atoms: C_2  and  C_3
REMARK    2  A    between atoms: C_5  and  C_6
REMARK    3  A    between atoms: C_6  and  C_8
REMARK    4  A    between atoms: C_8  and  N_9
REMARK    5  A    between atoms: N_9  and  C_10
REMARK    6  A    between atoms: C_10  and  C_11
REMARK    7  A    between atoms: C_11  and  C_12
REMARK    8  A    between atoms: C_12  and  C_13
REMARK    9  A    between atoms: C_13  and  C_14
REMARK   10  A    between atoms: C_14  and  C_15
REMARK   11  A    between atoms: C_15  and  O_16
REMARK   12  A    between atoms: O_16  and  C_17
REMARK   13  A    between atoms: C_17  and  C_18
REMARK   14  A    between atoms: C_18  and  O_19
REMARK   15  A    between atoms: O_19  and  C_20
REMARK   16  A    between atoms: C_20  and  C_21
REMARK                            x       y       z     vdW  Elec       q    Type
REMARK                         _______ _______ _______ _____ _____    ______ ____
ROOT
ATOM      1  C   UNL     1      -3.246   6.688  -3.397  0.00  0.00    +0.002 C 
ENDROOT
BRANCH   1   2
ATOM      2  C   UNL     1      -2.385   6.917  -2.183  0.00  0.00    +0.019 C 
BRANCH   2   3
ATOM      3  C   UNL     1      -2.161   5.594  -1.460  0.00  0.00    +0.089 C 
BRANCH   3   4
ATOM      4  N   UNL     1      -0.855   5.108  -1.875  0.00  0.00    -0.215 NA
BRANCH   4   5
ATOM      5  C   UNL     1       0.111   6.122  -1.517  0.00  0.00    +0.126 C 
BRANCH   5   6
ATOM      6  C   UNL     1       1.377   5.293  -0.854  0.00  0.00    +0.192 C 
ATOM      7  O   UNL     1       1.592   6.371   0.197  0.00  0.00    -0.217 OA
BRANCH   6  13
ATOM      8  C   UNL     1       4.380   5.728  -3.154  0.00  0.00    +0.049 A 
ATOM      9  C   UNL     1       4.450   7.109  -3.292  0.00  0.00    +0.194 A 
ATOM     10  O   UNL     1       5.047   7.695  -4.414  0.00  0.00    -0.287 OA
ATOM     11  C   UNL     1       3.749   7.862  -2.358  0.00  0.00    +0.042 A 
ATOM     12  C   UNL     1       2.771   7.284  -1.557  0.00  0.00    +0.001 A 
ATOM     13  C   UNL     1       2.428   5.998  -1.863  0.00  0.00    +0.009 A 
ATOM     14  C   UNL     1       3.448   5.159  -2.292  0.00  0.00    -0.000 A 
BRANCH   8  16
ATOM     15  O   UNL     1       5.101   4.621  -4.538  0.00  0.00    -0.215 OA
ATOM     16  C   UNL     1       4.880   4.946  -4.330  0.00  0.00    +0.212 C 
ENDBRANCH   8  16
ENDBRANCH   6  13
ENDBRANCH   5   6
ENDBRANCH   4   5
ENDBRANCH   3   4
ENDBRANCH   2   3
ENDBRANCH   1   2
BRANCH   1  17
ATOM     17  C   UNL     1      -2.429   6.555  -4.654  0.00  0.00    +0.003 C 
BRANCH  17  18
ATOM     18  C   UNL     1      -1.338   7.618  -4.651  0.00  0.00    +0.032 C 
BRANCH  18  19
ATOM     19  C   UNL     1      -0.063   6.993  -5.151  0.00  0.00    +0.142 C 
BRANCH  19  20
ATOM     20  O   UNL     1      -0.195   5.618  -5.268  0.00  0.00    -0.351 OA
BRANCH  20  21
ATOM     21  C   UNL     1       1.039   4.956  -5.197  0.00  0.00    +0.174 C 
BRANCH  21  22
ATOM     22  C   UNL     1       1.909   5.448  -6.324  0.00  0.00    +0.175 C 
BRANCH  22  23
ATOM     23  O   UNL     1       1.377   5.074  -7.566  0.00  0.00    -0.346 OA
BRANCH  23  24
ATOM     24  C   UNL     1       2.301   4.245  -8.209  0.00  0.00    +0.170 C 
BRANCH  24  25
ATOM     25  C   UNL     1       2.807   4.940  -9.420  0.00  0.00    +0.028 A 
ATOM     26  C   UNL     1       4.153   5.241  -9.534  0.00  0.00    +0.057 A 
ATOM     27 CL   UNL     1       5.252   4.946  -8.204  0.00  0.00    -0.082 Cl
ATOM     28  C   UNL     1       4.594   5.779 -10.738  0.00  0.00    +0.011 A 
ATOM     29  C   UNL     1       3.656   6.291 -11.625  0.00  0.00    +0.002 A 
ATOM     30  C   UNL     1       2.298   6.151 -11.371  0.00  0.00    +0.011 A 
ATOM     31  C   UNL     1       1.903   5.205 -10.441  0.00  0.00    +0.057 A 
ATOM     32 CL   UNL     1       0.440   4.250 -10.644  0.00  0.00    -0.082 Cl
ENDBRANCH  24  25
ENDBRANCH  23  24
ENDBRANCH  22  23
ENDBRANCH  21  22
ENDBRANCH  20  21
ENDBRANCH  19  20
ENDBRANCH  18  19
ENDBRANCH  17  18
ENDBRANCH   1  17
TORSDOF 16
ENDMDL
MODEL 8
REMARK VINA RESULT:      -7.2      3.205      9.699
REMARK  Name = 
REMARK  16 active torsions:
REMARK  status: ('A' for Active; 'I' for Inactive)
REMARK    1  A    between atoms: C_2  and  C_3
REMARK    2  A    between atoms: C_5  and  C_6
REMARK    3  A    between atoms: C_6  and  C_8
REMARK    4  A    between atoms: C_8  and  N_9
REMARK    5  A    between atoms: N_9  and  C_10
REMARK    6  A    between atoms: C_10  and  C_11
REMARK    7  A    between atoms: C_11  and  C_12
REMARK    8  A    between atoms: C_12  and  C_13
REMARK    9  A    between atoms: C_13  and  C_14
REMARK   10  A    between atoms: C_14  and  C_15
REMARK   11  A    between atoms: C_15  and  O_16
REMARK   12  A    between atoms: O_16  and  C_17
REMARK   13  A    between atoms: C_17  and  C_18
REMARK   14  A    between atoms: C_18  and  O_19
REMARK   15  A    between atoms: O_19  and  C_20
REMARK   16  A    between atoms: C_20  and  C_21
REMARK                            x       y       z     vdW  Elec       q    Type
REMARK                         _______ _______ _______ _____ _____    ______ ____
ROOT
ATOM      1  C   UNL     1       2.055   7.269  -8.512  0.00  0.00    +0.002 C 
ENDROOT
BRANCH   1   2
ATOM      2  C   UNL     1       2.522   7.363  -7.083  0.00  0.00    +0.019 C 
BRANCH   2   3
ATOM      3  C   UNL     1       3.795   6.544  -6.909  0.00  0.00    +0.089 C 
BRANCH   3   4
ATOM      4  N   UNL     1       3.501   5.520  -5.920  0.00  0.00    -0.215 NA
BRANCH   4   5
ATOM      5  C   UNL     1       2.569   6.093  -4.977  0.00  0.00    +0.126 C 
BRANCH   5   6
ATOM      6  C   UNL     1       1.659   4.821  -4.444  0.00  0.00    +0.192 C 
ATOM      7  O   UNL     1       1.669   4.177  -5.821  0.00  0.00    -0.217 OA
BRANCH   6  13
ATOM      8  C   UNL     1      -1.717   6.492  -3.889  0.00  0.00    +0.049 A 
ATOM      9  C   UNL     1      -2.201   6.620  -5.185  0.00  0.00    +0.194 A 
ATOM     10  O   UNL     1      -3.138   7.606  -5.515  0.00  0.00    -0.287 OA
ATOM     11  C   UNL     1      -1.582   5.844  -6.158  0.00  0.00    +0.042 A 
ATOM     12  C   UNL     1      -0.348   5.248  -5.923  0.00  0.00    +0.001 A 
ATOM     13  C   UNL     1       0.283   5.608  -4.767  0.00  0.00    +0.009 A 
ATOM     14  C   UNL     1      -0.519   5.826  -3.654  0.00  0.00    -0.000 A 
BRANCH   8  16
ATOM     15  O   UNL     1      -2.341   7.702  -2.545  0.00  0.00    -0.215 OA
ATOM     16  C   UNL     1      -2.184   7.544  -2.930  0.00  0.00    +0.212 C 
ENDBRANCH   8  16
ENDBRANCH   6  13
ENDBRANCH   5   6
ENDBRANCH   4   5
ENDBRANCH   3   4
ENDBRANCH   2   3
ENDBRANCH   1   2
BRANCH   1  17
ATOM     17  C   UNL     1       1.564   5.889  -8.859  0.00  0.00    +0.003 C 
BRANCH  17  18
ATOM     18  C   UNL     1       0.214   6.005  -9.554  0.00  0.00    +0.032 C 
BRANCH  18  19
ATOM     19  C   UNL     1       0.162   4.988 -10.664  0.00  0.00    +0.142 C 
BRANCH  19  20
ATOM     20  O   UNL     1      -0.193   5.581 -11.866  0.00  0.00    -0.351 OA
BRANCH  20  21
ATOM     21  C   UNL     1       0.714   6.575 -12.259  0.00  0.00    +0.174 C 
BRANCH  21  22
ATOM     22  C   UNL     1       1.981   5.906 -12.727  0.00  0.00    +0.175 C 
BRANCH  22  23
ATOM     23  O   UNL     1       3.092   6.397 -12.028  0.00  0.00    -0.346 OA
BRANCH  23  24
ATOM     24  C   UNL     1       4.186   5.570 -12.303  0.00  0.00    +0.170 C 
BRANCH  24  25
ATOM     25  C   UNL     1       5.348   6.030 -11.500  0.00  0.00    +0.028 A 
ATOM     26  C   UNL     1       5.563   5.513 -10.235  0.00  0.00    +0.057 A 
ATOM     27 CL   UNL     1       4.401   4.428  -9.500  0.00  0.00    -0.082 Cl
ATOM     28  C   UNL     1       6.730   5.882  -9.577  0.00  0.00    +0.011 A 
ATOM     29  C   UNL     1       7.445   6.976 -10.047  0.00  0.00    +0.002 A 
ATOM     30  C   UNL     1       7.071   7.606 -11.226  0.00  0.00    +0.011 A 
ATOM     31  C   UNL     1       6.228   6.927 -12.089  0.00  0.00    +0.057 A 
ATOM     32 CL   UNL     1       6.394   7.039 -13.837  0.00  0.00    -0.082 Cl
ENDBRANCH  24  25
ENDBRANCH  23  24
ENDBRANCH  22  23
ENDBRANCH  21  22
ENDBRANCH  20  21
ENDBRANCH  19  20
ENDBRANCH  18  19
ENDBRANCH  17  18
ENDBRANCH   1  17
TORSDOF 16
ENDMDL
MODEL 9
REMARK VINA RESULT:      -7.2      3.393      8.876
REMARK  Name = 
REMARK  16 active torsions:
REMARK  status: ('A' for Active; 'I' for Inactive)
REMARK    1  A    between atoms: C_2  and  C_3
REMARK    2  A    between atoms: C_5  and  C_6
REMARK    3  A    between atoms: C_6  and  C_8
REMARK    4  A    between atoms: C_8  and  N_9
REMARK    5  A    between atoms: N_9  and  C_10
REMARK    6  A    between atoms: C_10  and  C_11
REMARK    7  A    between atoms: C_11  and  C_12
REMARK    8  A    between atoms: C_12  and  C_13
REMARK    9  A    between atoms: C_13  and  C_14
REMARK   10  A    between atoms: C_14  and  C_15
REMARK   11  A    between atoms: C_15  and  O_16
REMARK   12  A    between atoms: O_16  and  C_17
REMARK   13  A    between atoms: C_17  and  C_18
REMARK   14  A    between atoms: C_18  and  O_19
REMARK   15  A    between atoms: O_19  and  C_20
REMARK   16  A    between atoms: C_20  and  C_21
REMARK                            x       y       z     vdW  Elec       q    Type
REMARK                         _______ _______ _______ _____ _____    ______ ____
ROOT
ATOM      1  C   UNL     1      -2.420   6.085  -6.106  0.00  0.00    +0.002 C 
ENDROOT
BRANCH   1   2
ATOM      2  C   UNL     1      -1.889   6.702  -4.839  0.00  0.00    +0.019 C 
BRANCH   2   3
ATOM      3  C   UNL     1      -2.483   5.981  -3.635  0.00  0.00    +0.089 C 
BRANCH   3   4
ATOM      4  N   UNL     1      -1.412   5.190  -3.052  0.00  0.00    -0.215 NA
BRANCH   4   5
ATOM      5  C   UNL     1      -0.297   6.082  -2.827  0.00  0.00    +0.126 C 
BRANCH   5   6
ATOM      6  C   UNL     1       0.865   5.147  -2.116  0.00  0.00    +0.192 C 
ATOM      7  O   UNL     1       0.851   6.003  -0.859  0.00  0.00    -0.217 OA
BRANCH   6  13
ATOM      8  C   UNL     1       3.891   6.065  -4.236  0.00  0.00    +0.049 A 
ATOM      9  C   UNL     1       4.268   7.290  -3.699  0.00  0.00    +0.194 A 
ATOM     10  O   UNL     1       4.983   8.224  -4.458  0.00  0.00    -0.287 OA
ATOM     11  C   UNL     1       3.752   7.605  -2.447  0.00  0.00    +0.042 A 
ATOM     12  C   UNL     1       2.669   6.910  -1.923  0.00  0.00    +0.001 A 
ATOM     13  C   UNL     1       2.048   6.037  -2.770  0.00  0.00    +0.009 A 
ATOM     14  C   UNL     1       2.855   5.339  -3.658  0.00  0.00    -0.000 A 
BRANCH   8  16
ATOM     15  O   UNL     1       4.216   5.672  -6.080  0.00  0.00    -0.215 OA
ATOM     16  C   UNL     1       4.205   5.885  -5.689  0.00  0.00    +0.212 C 
ENDBRANCH   8  16
ENDBRANCH   6  13
ENDBRANCH   5   6
ENDBRANCH   4   5
ENDBRANCH   3   4
ENDBRANCH   2   3
ENDBRANCH   1   2
BRANCH   1  17
ATOM     17  C   UNL     1      -1.415   5.171  -6.756  0.00  0.00    +0.003 C 
BRANCH  17  18
ATOM     18  C   UNL     1      -0.026   5.780  -6.612  0.00  0.00    +0.032 C 
BRANCH  18  19
ATOM     19  C   UNL     1       0.780   5.419  -7.832  0.00  0.00    +0.142 C 
BRANCH  19  20
ATOM     20  O   UNL     1       1.665   6.434  -8.162  0.00  0.00    -0.351 OA
BRANCH  20  21
ATOM     21  C   UNL     1       2.405   6.142  -9.316  0.00  0.00    +0.174 C 
BRANCH  21  22
ATOM     22  C   UNL     1       2.921   4.730  -9.206  0.00  0.00    +0.175 C 
BRANCH  22  23
ATOM     23  O   UNL     1       4.216   4.630  -9.734  0.00  0.00    -0.346 OA
BRANCH  23  24
ATOM     24  C   UNL     1       4.614   5.899 -10.167  0.00  0.00    +0.170 C 
BRANCH  24  25
ATOM     25  C   UNL     1       5.543   5.743 -11.316  0.00  0.00    +0.028 A 
ATOM     26  C   UNL     1       5.048   5.730 -12.608  0.00  0.00    +0.057 A 
ATOM     27 CL   UNL     1       3.323   5.745 -12.907  0.00  0.00    -0.082 Cl
ATOM     28  C   UNL     1       5.967   5.707 -13.651  0.00  0.00    +0.011 A 
ATOM     29  C   UNL     1       7.286   5.369 -13.373  0.00  0.00    +0.002 A 
ATOM     30  C   UNL     1       7.702   5.185 -12.060  0.00  0.00    +0.011 A 
ATOM     31  C   UNL     1       6.903   5.686 -11.047  0.00  0.00    +0.057 A 
ATOM     32 CL   UNL     1       7.582   6.392  -9.586  0.00  0.00    -0.082 Cl
ENDBRANCH  24  25
ENDBRANCH  23  24
ENDBRANCH  22  23
ENDBRANCH  21  22
ENDBRANCH  20  21
ENDBRANCH  19  20
ENDBRANCH  18  19
ENDBRANCH  17  18
ENDBRANCH   1  17
TORSDOF 16
ENDMDL
