MODEL 1
REMARK VINA RESULT:      -6.7      0.000      0.000
REMARK  Name = 
REMARK  1 active torsions:
REMARK  status: ('A' for Active; 'I' for Inactive)
REMARK    1  A    between atoms: S_2  and  C_5
REMARK                            x       y       z     vdW  Elec       q    Type
REMARK                         _______ _______ _______ _____ _____    ______ ____
ROOT
ATOM      1  C   UNL     1       1.622   6.555  -5.316  0.00  0.00    +0.137 A 
ATOM      2  C   UNL     1       1.965   5.528  -4.445  0.00  0.00    +0.078 A 
ATOM      3 CL   UNL     1       3.231   4.368  -4.839  0.00  0.00    -0.081 Cl
ATOM      4  C   UNL     1       1.051   5.269  -3.431  0.00  0.00    +0.031 A 
ATOM      5  C   UNL     1      -0.276   5.663  -3.563  0.00  0.00    +0.092 A 
ATOM      6  N   UNL     1      -1.171   5.260  -2.539  0.00  0.00    -0.189 NA
ATOM      7  C   UNL     1      -2.582   5.413  -2.717  0.00  0.00    +0.208 C 
ATOM      8  N   UNL     1      -3.086   5.234  -3.904  0.00  0.00    -0.108 NA
ATOM      9  S   UNL     1      -2.338   6.114  -5.205  0.00  0.00    +0.103 S 
ATOM     10  O   UNL     1      -2.295   5.186  -6.385  0.00  0.00    -0.146 OA
ATOM     11  O   UNL     1      -3.083   7.377  -5.500  0.00  0.00    -0.146 OA
ATOM     12  C   UNL     1      -0.700   6.439  -4.637  0.00  0.00    +0.146 A 
ATOM     13  C   UNL     1       0.288   6.906  -5.486  0.00  0.00    +0.043 A 
ENDROOT
BRANCH   1  15
ATOM     14  N   UNL     1       2.146   8.167  -7.571  0.00  0.00    +0.039 NA
ATOM     15  S   UNL     1       2.812   6.926  -6.555  0.00  0.00    +0.094 S 
ATOM     16  O   UNL     1       3.110   5.746  -7.420  0.00  0.00    -0.150 OA
ATOM     17  O   UNL     1       4.074   7.467  -5.974  0.00  0.00    -0.150 OA
ENDBRANCH   1  15
TORSDOF 1
ENDMDL
MODEL 2
REMARK VINA RESULT:      -6.5      2.879      5.617
REMARK  Name = 
REMARK  1 active torsions:
REMARK  status: ('A' for Active; 'I' for Inactive)
REMARK    1  A    between atoms: S_2  and  C_5
REMARK                            x       y       z     vdW  Elec       q    Type
REMARK                         _______ _______ _______ _____ _____    ______ ____
ROOT
ATOM      1  C   UNL     1      -0.512   6.227  -3.648  0.00  0.00    +0.137 A 
ATOM      2  C   UNL     1      -1.073   6.989  -4.666  0.00  0.00    +0.078 A 
ATOM      3 CL   UNL     1      -2.807   6.981  -4.978  0.00  0.00    -0.081 Cl
ATOM      4  C   UNL     1      -0.180   7.478  -5.613  0.00  0.00    +0.031 A 
ATOM      5  C   UNL     1       1.058   6.869  -5.792  0.00  0.00    +0.092 A 
ATOM      6  N   UNL     1       1.863   7.353  -6.855  0.00  0.00    -0.189 NA
ATOM      7  C   UNL     1       3.031   6.630  -7.256  0.00  0.00    +0.208 C 
ATOM      8  N   UNL     1       3.008   5.329  -7.212  0.00  0.00    -0.108 NA
ATOM      9  S   UNL     1       2.489   4.613  -5.715  0.00  0.00    +0.103 S 
ATOM     10  O   UNL     1       1.640   3.427  -6.076  0.00  0.00    -0.146 OA
ATOM     11  O   UNL     1       3.660   4.236  -4.863  0.00  0.00    -0.146 OA
ATOM     12  C   UNL     1       1.496   5.853  -4.950  0.00  0.00    +0.146 A 
ATOM     13  C   UNL     1       0.698   5.576  -3.853  0.00  0.00    +0.043 A 
ENDROOT
BRANCH   1  15
ATOM     14  N   UNL     1      -2.508   7.054  -1.836  0.00  0.00    +0.039 NA
ATOM     15  S   UNL     1      -1.634   5.670  -2.416  0.00  0.00    +0.094 S 
ATOM     16  O   UNL     1      -0.931   5.059  -1.249  0.00  0.00    -0.150 OA
ATOM     17  O   UNL     1      -2.641   4.717  -2.965  0.00  0.00    -0.150 OA
ENDBRANCH   1  15
TORSDOF 1
ENDMDL
MODEL 3
REMARK VINA RESULT:      -6.4      2.843      3.653
REMARK  Name = 
REMARK  1 active torsions:
REMARK  status: ('A' for Active; 'I' for Inactive)
REMARK    1  A    between atoms: S_2  and  C_5
REMARK                            x       y       z     vdW  Elec       q    Type
REMARK                         _______ _______ _______ _____ _____    ______ ____
ROOT
ATOM      1  C   UNL     1       1.961   5.512  -3.425  0.00  0.00    +0.137 A 
ATOM      2  C   UNL     1       2.307   6.094  -4.640  0.00  0.00    +0.078 A 
ATOM      3 CL   UNL     1       3.576   7.310  -4.752  0.00  0.00    -0.081 Cl
ATOM      4  C   UNL     1       1.392   5.919  -5.671  0.00  0.00    +0.031 A 
ATOM      5  C   UNL     1       0.064   5.617  -5.390  0.00  0.00    +0.092 A 
ATOM      6  N   UNL     1      -0.830   5.569  -6.490  0.00  0.00    -0.189 NA
ATOM      7  C   UNL     1      -2.242   5.507  -6.265  0.00  0.00    +0.208 C 
ATOM      8  N   UNL     1      -2.744   6.155  -5.254  0.00  0.00    -0.108 NA
ATOM      9  S   UNL     1      -1.997   5.880  -3.708  0.00  0.00    +0.103 S 
ATOM     10  O   UNL     1      -1.951   7.209  -3.009  0.00  0.00    -0.146 OA
ATOM     11  O   UNL     1      -2.745   4.849  -2.923  0.00  0.00    -0.146 OA
ATOM     12  C   UNL     1      -0.361   5.348  -4.093  0.00  0.00    +0.146 A 
ATOM     13  C   UNL     1       0.627   5.265  -3.127  0.00  0.00    +0.043 A 
ENDROOT
BRANCH   1  15
ATOM     14  N   UNL     1       2.617   4.711  -0.801  0.00  0.00    +0.039 NA
ATOM     15  S   UNL     1       3.152   5.676  -2.143  0.00  0.00    +0.094 S 
ATOM     16  O   UNL     1       3.274   7.085  -1.664  0.00  0.00    -0.150 OA
ATOM     17  O   UNL     1       4.488   5.155  -2.550  0.00  0.00    -0.150 OA
ENDBRANCH   1  15
TORSDOF 1
ENDMDL
MODEL 4
REMARK VINA RESULT:      -6.3      2.855      5.482
REMARK  Name = 
REMARK  1 active torsions:
REMARK  status: ('A' for Active; 'I' for Inactive)
REMARK    1  A    between atoms: S_2  and  C_5
REMARK                            x       y       z     vdW  Elec       q    Type
REMARK                         _______ _______ _______ _____ _____    ______ ____
ROOT
ATOM      1  C   UNL     1      -0.484   5.467  -6.158  0.00  0.00    +0.137 A 
ATOM      2  C   UNL     1       0.469   4.845  -5.359  0.00  0.00    +0.078 A 
ATOM      3 CL   UNL     1       0.592   5.186  -3.636  0.00  0.00    -0.081 Cl
ATOM      4  C   UNL     1       1.506   4.218  -6.039  0.00  0.00    +0.031 A 
ATOM      5  C   UNL     1       1.816   4.586  -7.343  0.00  0.00    +0.092 A 
ATOM      6  N   UNL     1       2.961   3.983  -7.926  0.00  0.00    -0.189 NA
ATOM      7  C   UNL     1       3.484   4.481  -9.161  0.00  0.00    +0.208 C 
ATOM      8  N   UNL     1       3.437   5.762  -9.389  0.00  0.00    -0.108 NA
ATOM      9  S   UNL     1       1.892   6.531  -9.176  0.00  0.00    +0.103 S 
ATOM     10  O   UNL     1       2.158   7.863  -8.533  0.00  0.00    -0.146 OA
ATOM     11  O   UNL     1       1.170   6.662 -10.480  0.00  0.00    -0.146 OA
ATOM     12  C   UNL     1       1.026   5.484  -8.052  0.00  0.00    +0.146 A 
ATOM     13  C   UNL     1      -0.151   5.883  -7.442  0.00  0.00    +0.043 A 
ENDROOT
BRANCH   1  15
ATOM     14  N   UNL     1      -1.267   7.691  -4.611  0.00  0.00    +0.039 NA
ATOM     15  S   UNL     1      -1.831   6.198  -5.298  0.00  0.00    +0.094 S 
ATOM     16  O   UNL     1      -2.315   5.340  -4.177  0.00  0.00    -0.150 OA
ATOM     17  O   UNL     1      -2.960   6.537  -6.211  0.00  0.00    -0.150 OA
ENDBRANCH   1  15
TORSDOF 1
ENDMDL
MODEL 5
REMARK VINA RESULT:      -6.3      7.401      9.123
REMARK  Name = 
REMARK  1 active torsions:
REMARK  status: ('A' for Active; 'I' for Inactive)
REMARK    1  A    between atoms: S_2  and  C_5
REMARK                            x       y       z     vdW  Elec       q    Type
REMARK                         _______ _______ _______ _____ _____    ______ ____
ROOT
ATOM      1  C   UNL     1       3.114   5.722 -12.116  0.00  0.00    +0.137 A 
ATOM      2  C   UNL     1       2.722   5.753 -10.783  0.00  0.00    +0.078 A 
ATOM      3 CL   UNL     1       1.211   6.508 -10.284  0.00  0.00    -0.081 Cl
ATOM      4  C   UNL     1       3.717   5.468  -9.857  0.00  0.00    +0.031 A 
ATOM      5  C   UNL     1       5.058   5.615 -10.197  0.00  0.00    +0.092 A 
ATOM      6  N   UNL     1       6.009   5.418  -9.163  0.00  0.00    -0.189 NA
ATOM      7  C   UNL     1       7.377   5.783  -9.367  0.00  0.00    +0.208 C 
ATOM      8  N   UNL     1       7.643   6.838 -10.082  0.00  0.00    -0.108 NA
ATOM      9  S   UNL     1       6.882   6.930 -11.643  0.00  0.00    +0.103 S 
ATOM     10  O   UNL     1       6.477   8.363 -11.841  0.00  0.00    -0.146 OA
ATOM     11  O   UNL     1       7.800   6.443 -12.719  0.00  0.00    -0.146 OA
ATOM     12  C   UNL     1       5.448   5.915 -11.498  0.00  0.00    +0.146 A 
ATOM     13  C   UNL     1       4.447   5.925 -12.454  0.00  0.00    +0.043 A 
ENDROOT
BRANCH   1  15
ATOM     14  N   UNL     1       0.630   4.784 -13.067  0.00  0.00    +0.039 NA
ATOM     15  S   UNL     1       1.836   6.013 -13.287  0.00  0.00    +0.094 S 
ATOM     16  O   UNL     1       2.328   5.916 -14.693  0.00  0.00    -0.150 OA
ATOM     17  O   UNL     1       1.166   7.327 -13.068  0.00  0.00    -0.150 OA
ENDBRANCH   1  15
TORSDOF 1
ENDMDL
MODEL 6
REMARK VINA RESULT:      -6.2      5.670      8.148
REMARK  Name = 
REMARK  1 active torsions:
REMARK  status: ('A' for Active; 'I' for Inactive)
REMARK    1  A    between atoms: S_2  and  C_5
REMARK                            x       y       z     vdW  Elec       q    Type
REMARK                         _______ _______ _______ _____ _____    ______ ____
ROOT
ATOM      1  C   UNL     1       2.515   5.622  -9.788  0.00  0.00    +0.137 A 
ATOM      2  C   UNL     1       2.922   6.157  -8.572  0.00  0.00    +0.078 A 
ATOM      3 CL   UNL     1       1.976   7.392  -7.745  0.00  0.00    -0.081 Cl
ATOM      4  C   UNL     1       4.246   5.920  -8.223  0.00  0.00    +0.031 A 
ATOM      5  C   UNL     1       5.184   5.604  -9.200  0.00  0.00    +0.092 A 
ATOM      6  N   UNL     1       6.535   5.492  -8.781  0.00  0.00    -0.189 NA
ATOM      7  C   UNL     1       7.583   5.411  -9.751  0.00  0.00    +0.208 C 
ATOM      8  N   UNL     1       7.469   6.093 -10.854  0.00  0.00    -0.108 NA
ATOM      9  S   UNL     1       5.982   5.899 -11.735  0.00  0.00    +0.103 S 
ATOM     10  O   UNL     1       5.611   7.258 -12.258  0.00  0.00    -0.146 OA
ATOM     11  O   UNL     1       6.130   4.889 -12.828  0.00  0.00    -0.146 OA
ATOM     12  C   UNL     1       4.811   5.383 -10.521  0.00  0.00    +0.146 A 
ATOM     13  C   UNL     1       3.452   5.361 -10.781  0.00  0.00    +0.043 A 
ENDROOT
BRANCH   1  15
ATOM     14  N   UNL     1       0.465   4.874 -11.575  0.00  0.00    +0.039 NA
ATOM     15  S   UNL     1       0.822   5.864 -10.192  0.00  0.00    +0.094 S 
ATOM     16  O   UNL     1       0.529   7.280 -10.563  0.00  0.00    -0.150 OA
ATOM     17  O   UNL     1      -0.084   5.422  -9.094  0.00  0.00    -0.150 OA
ENDBRANCH   1  15
TORSDOF 1
ENDMDL
MODEL 7
REMARK VINA RESULT:      -6.2      4.174      6.176
REMARK  Name = 
REMARK  1 active torsions:
REMARK  status: ('A' for Active; 'I' for Inactive)
REMARK    1  A    between atoms: S_2  and  C_5
REMARK                            x       y       z     vdW  Elec       q    Type
REMARK                         _______ _______ _______ _____ _____    ______ ____
ROOT
ATOM      1  C   UNL     1       2.276   6.510  -6.764  0.00  0.00    +0.137 A 
ATOM      2  C   UNL     1       1.135   5.763  -7.034  0.00  0.00    +0.078 A 
ATOM      3 CL   UNL     1       0.596   4.480  -5.954  0.00  0.00    -0.081 Cl
ATOM      4  C   UNL     1       0.651   5.853  -8.333  0.00  0.00    +0.031 A 
ATOM      5  C   UNL     1       1.488   6.255  -9.369  0.00  0.00    +0.092 A 
ATOM      6  N   UNL     1       0.952   6.209 -10.682  0.00  0.00    -0.189 NA
ATOM      7  C   UNL     1       1.812   6.371 -11.814  0.00  0.00    +0.208 C 
ATOM      8  N   UNL     1       3.017   5.882 -11.760  0.00  0.00    -0.108 NA
ATOM      9  S   UNL     1       3.967   6.311 -10.368  0.00  0.00    +0.103 S 
ATOM     10  O   UNL     1       4.732   5.080  -9.972  0.00  0.00    -0.146 OA
ATOM     11  O   UNL     1       4.866   7.469 -10.665  0.00  0.00    -0.146 OA
ATOM     12  C   UNL     1       2.780   6.707  -9.125  0.00  0.00    +0.146 A 
ATOM     13  C   UNL     1       3.138   6.861  -7.797  0.00  0.00    +0.043 A 
ENDROOT
BRANCH   1  15
ATOM     14  N   UNL     1       4.161   7.573  -4.955  0.00  0.00    +0.039 NA
ATOM     15  S   UNL     1       2.845   6.449  -5.102  0.00  0.00    +0.094 S 
ATOM     16  O   UNL     1       3.362   5.098  -4.734  0.00  0.00    -0.150 OA
ATOM     17  O   UNL     1       1.794   6.878  -4.136  0.00  0.00    -0.150 OA
ENDBRANCH   1  15
TORSDOF 1
ENDMDL
MODEL 8
REMARK VINA RESULT:      -6.2      2.237      5.234
REMARK  Name = 
REMARK  1 active torsions:
REMARK  status: ('A' for Active; 'I' for Inactive)
REMARK    1  A    between atoms: S_2  and  C_5
REMARK                            x       y       z     vdW  Elec       q    Type
REMARK                         _______ _______ _______ _____ _____    ______ ____
ROOT
ATOM      1  C   UNL     1      -0.524   5.498  -4.449  0.00  0.00    +0.137 A 
ATOM      2  C   UNL     1      -0.095   5.786  -3.158  0.00  0.00    +0.078 A 
ATOM      3 CL   UNL     1      -1.017   6.846  -2.095  0.00  0.00    -0.081 Cl
ATOM      4  C   UNL     1       1.231   5.476  -2.882  0.00  0.00    +0.031 A 
ATOM      5  C   UNL     1       2.152   5.347  -3.915  0.00  0.00    +0.092 A 
ATOM      6  N   UNL     1       3.507   5.145  -3.546  0.00  0.00    -0.189 NA
ATOM      7  C   UNL     1       4.542   5.245  -4.529  0.00  0.00    +0.208 C 
ATOM      8  N   UNL     1       4.420   6.127  -5.479  0.00  0.00    -0.108 NA
ATOM      9  S   UNL     1       2.919   6.118  -6.358  0.00  0.00    +0.103 S 
ATOM     10  O   UNL     1       2.556   7.555  -6.604  0.00  0.00    -0.146 OA
ATOM     11  O   UNL     1       3.042   5.336  -7.627  0.00  0.00    -0.146 OA
ATOM     12  C   UNL     1       1.759   5.387  -5.249  0.00  0.00    +0.146 A 
ATOM     13  C   UNL     1       0.396   5.426  -5.487  0.00  0.00    +0.043 A 
ENDROOT
BRANCH   1  15
ATOM     14  N   UNL     1      -3.153   5.043  -3.536  0.00  0.00    +0.039 NA
ATOM     15  S   UNL     1      -2.220   5.827  -4.773  0.00  0.00    +0.094 S 
ATOM     16  O   UNL     1      -2.659   5.274  -6.088  0.00  0.00    -0.150 OA
ATOM     17  O   UNL     1      -2.532   7.283  -4.699  0.00  0.00    -0.150 OA
ENDBRANCH   1  15
TORSDOF 1
ENDMDL
MODEL 9
REMARK VINA RESULT:      -6.1      3.129      5.461
REMARK  Name = 
REMARK  1 active torsions:
REMARK  status: ('A' for Active; 'I' for Inactive)
REMARK    1  A    between atoms: S_2  and  C_5
REMARK                            x       y       z     vdW  Elec       q    Type
REMARK                         _______ _______ _______ _____ _____    ______ ____
ROOT
ATOM      1  C   UNL     1      -0.878   5.909  -3.038  0.00  0.00    +0.137 A 
ATOM      2  C   UNL     1      -0.856   6.271  -1.696  0.00  0.00    +0.078 A 
ATOM      3 CL   UNL     1      -1.823   7.612  -1.088  0.00  0.00    -0.081 Cl
ATOM      4  C   UNL     1       0.196   5.754  -0.951  0.00  0.00    +0.031 A 
ATOM      5  C   UNL     1       1.359   5.323  -1.580  0.00  0.00    +0.092 A 
ATOM      6  N   UNL     1       2.430   4.917  -0.743  0.00  0.00    -0.189 NA
ATOM      7  C   UNL     1       3.729   4.694  -1.298  0.00  0.00    +0.208 C 
ATOM      8  N   UNL     1       4.133   5.456  -2.273  0.00  0.00    -0.108 NA
ATOM      9  S   UNL     1       3.053   5.620  -3.627  0.00  0.00    +0.103 S 
ATOM     10  O   UNL     1       3.122   7.057  -4.061  0.00  0.00    -0.146 OA
ATOM     11  O   UNL     1       3.420   4.674  -4.726  0.00  0.00    -0.146 OA
ATOM     12  C   UNL     1       1.457   5.268  -2.967  0.00  0.00    +0.146 A 
ATOM     13  C   UNL     1       0.298   5.533  -3.676  0.00  0.00    +0.043 A 
ENDROOT
BRANCH   1  15
ATOM     14  N   UNL     1      -1.935   8.173  -4.346  0.00  0.00    +0.039 NA
ATOM     15  S   UNL     1      -2.248   6.508  -3.962  0.00  0.00    +0.094 S 
ATOM     16  O   UNL     1      -3.519   6.457  -3.180  0.00  0.00    -0.150 OA
ATOM     17  O   UNL     1      -2.411   5.785  -5.255  0.00  0.00    -0.150 OA
ENDBRANCH   1  15
TORSDOF 1
ENDMDL
