MODEL 1
REMARK VINA RESULT:      -5.8      0.000      0.000
REMARK  Name = 
REMARK  6 active torsions:
REMARK  status: ('A' for Active; 'I' for Inactive)
REMARK    1  A    between atoms: O_2  and  C_3
REMARK    2  A    between atoms: C_3  and  C_5
REMARK    3  A    between atoms: C_11  and  C_12
REMARK    4  A    between atoms: C_12  and  O_14
REMARK    5  A    between atoms: C_16  and  C_17
REMARK    6  A    between atoms: C_22  and  N_23
REMARK                            x       y       z     vdW  Elec       q    Type
REMARK                         _______ _______ _______ _____ _____    ______ ____
ROOT
ATOM      1  C   UNL     1       0.366   6.536  -1.245  0.00  0.00    +0.073 C 
ATOM      2  C   UNL     1       1.473   6.146  -2.128  0.00  0.00    +0.087 C 
ATOM      3  C   UNL     1       1.142   6.304  -3.552  0.00  0.00    +0.073 C 
ATOM      4  C   UNL     1      -0.119   6.549  -3.909  0.00  0.00    +0.051 C 
ATOM      5  C   UNL     1      -0.349   7.232  -5.211  0.00  0.00    +0.049 C 
ATOM      6  N   UNL     1      -1.203   6.251  -3.023  0.00  0.00    -0.221 NA
ATOM      7  C   UNL     1      -0.865   6.206  -1.631  0.00  0.00    +0.051 C 
ATOM      8  C   UNL     1      -1.921   5.938  -0.604  0.00  0.00    +0.049 C 
ENDROOT
BRANCH   2   9
ATOM      9  C   UNL     1       2.776   6.711  -1.744  0.00  0.00    +0.055 A 
ATOM     10  C   UNL     1       3.583   5.914  -0.939  0.00  0.00    +0.287 A 
ATOM     11  C   UNL     1       4.498   6.492  -0.068  0.00  0.00    +0.075 A 
ATOM     12  C   UNL     1       4.467   7.866   0.146  0.00  0.00    +0.006 A 
ATOM     13  C   UNL     1       3.968   8.611  -0.915  0.00  0.00    +0.000 A 
ATOM     14  C   UNL     1       3.092   8.061  -1.842  0.00  0.00    +0.002 A 
BRANCH  10  15
ATOM     15  N   UNL     1       3.754   4.552  -1.348  0.00  0.00    +0.081 N 
ATOM     16  O   UNL     1       3.505   3.494  -0.519  0.00  0.00    -0.576 OA
ATOM     17  O   UNL     1       4.417   4.386  -2.403  0.00  0.00    +0.041 OA
ENDBRANCH  10  15
ENDBRANCH   2   9
BRANCH   1  18
ATOM     18  C   UNL     1       0.544   7.215   0.044  0.00  0.00    +0.339 C 
ATOM     19  O   UNL     1       0.663   6.442   1.043  0.00  0.00    -0.245 OA
BRANCH  18  21
ATOM     20  C   UNL     1       0.249   9.368   1.218  0.00  0.00    +0.256 C 
ATOM     21  O   UNL     1      -0.189   8.380   0.289  0.00  0.00    -0.442 OA
ENDBRANCH  18  21
ENDBRANCH   1  18
BRANCH   3  22
ATOM     22  C   UNL     1       2.095   5.900  -4.570  0.00  0.00    +0.339 C 
ATOM     23  O   UNL     1       2.094   4.725  -5.048  0.00  0.00    -0.245 OA
BRANCH  22  24
ATOM     24  O   UNL     1       2.965   6.791  -5.201  0.00  0.00    -0.442 OA
ATOM     25  C   UNL     1       4.376   6.584  -5.171  0.00  0.00    +0.256 C 
ENDBRANCH  22  24
ENDBRANCH   3  22
TORSDOF 6
ENDMDL
MODEL 2
REMARK VINA RESULT:      -5.7      2.335      5.799
REMARK  Name = 
REMARK  6 active torsions:
REMARK  status: ('A' for Active; 'I' for Inactive)
REMARK    1  A    between atoms: O_2  and  C_3
REMARK    2  A    between atoms: C_3  and  C_5
REMARK    3  A    between atoms: C_11  and  C_12
REMARK    4  A    between atoms: C_12  and  O_14
REMARK    5  A    between atoms: C_16  and  C_17
REMARK    6  A    between atoms: C_22  and  N_23
REMARK                            x       y       z     vdW  Elec       q    Type
REMARK                         _______ _______ _______ _____ _____    ______ ____
ROOT
ATOM      1  C   UNL     1       1.466   5.384  -5.789  0.00  0.00    +0.073 C 
ATOM      2  C   UNL     1       1.462   5.823  -4.388  0.00  0.00    +0.087 C 
ATOM      3  C   UNL     1       2.752   6.391  -3.969  0.00  0.00    +0.073 C 
ATOM      4  C   UNL     1       3.814   6.260  -4.764  0.00  0.00    +0.051 C 
ATOM      5  C   UNL     1       4.910   7.258  -4.624  0.00  0.00    +0.049 C 
ATOM      6  N   UNL     1       3.851   5.252  -5.781  0.00  0.00    -0.221 NA
ATOM      7  C   UNL     1       2.573   4.795  -6.238  0.00  0.00    +0.051 C 
ATOM      8  C   UNL     1       2.481   3.768  -7.323  0.00  0.00    +0.049 C 
ENDROOT
BRANCH   2   9
ATOM      9  C   UNL     1       0.294   6.638  -4.015  0.00  0.00    +0.055 A 
ATOM     10  C   UNL     1      -0.555   6.100  -3.054  0.00  0.00    +0.287 A 
ATOM     11  C   UNL     1      -1.903   6.436  -3.038  0.00  0.00    +0.075 A 
ATOM     12  C   UNL     1      -2.443   7.150  -4.102  0.00  0.00    +0.006 A 
ATOM     13  C   UNL     1      -1.544   7.966  -4.776  0.00  0.00    +0.000 A 
ATOM     14  C   UNL     1      -0.180   7.700  -4.776  0.00  0.00    +0.002 A 
BRANCH  10  15
ATOM     15  N   UNL     1       0.062   5.581  -1.870  0.00  0.00    +0.081 N 
ATOM     16  O   UNL     1       0.327   4.251  -1.697  0.00  0.00    -0.576 OA
ATOM     17  O   UNL     1       0.083   6.362  -0.886  0.00  0.00    +0.041 OA
ENDBRANCH  10  15
ENDBRANCH   2   9
BRANCH   1  18
ATOM     18  C   UNL     1       0.317   5.514  -6.693  0.00  0.00    +0.339 C 
ATOM     19  O   UNL     1      -0.521   4.564  -6.631  0.00  0.00    -0.245 OA
BRANCH  18  21
ATOM     20  C   UNL     1      -0.105   5.471  -9.127  0.00  0.00    +0.256 C 
ATOM     21  O   UNL     1       0.536   6.020  -7.979  0.00  0.00    -0.442 OA
ENDBRANCH  18  21
ENDBRANCH   1  18
BRANCH   3  22
ATOM     22  C   UNL     1       2.951   6.812  -2.594  0.00  0.00    +0.339 C 
ATOM     23  O   UNL     1       3.301   5.990  -1.694  0.00  0.00    -0.245 OA
BRANCH  22  24
ATOM     24  O   UNL     1       2.924   8.148  -2.191  0.00  0.00    -0.442 OA
ATOM     25  C   UNL     1       3.730   8.605  -1.107  0.00  0.00    +0.256 C 
ENDBRANCH  22  24
ENDBRANCH   3  22
TORSDOF 6
ENDMDL
MODEL 3
REMARK VINA RESULT:      -5.7      6.924      9.830
REMARK  Name = 
REMARK  6 active torsions:
REMARK  status: ('A' for Active; 'I' for Inactive)
REMARK    1  A    between atoms: O_2  and  C_3
REMARK    2  A    between atoms: C_3  and  C_5
REMARK    3  A    between atoms: C_11  and  C_12
REMARK    4  A    between atoms: C_12  and  O_14
REMARK    5  A    between atoms: C_16  and  C_17
REMARK    6  A    between atoms: C_22  and  N_23
REMARK                            x       y       z     vdW  Elec       q    Type
REMARK                         _______ _______ _______ _____ _____    ______ ____
ROOT
ATOM      1  C   UNL     1       3.229   5.239  -9.641  0.00  0.00    +0.073 C 
ATOM      2  C   UNL     1       3.204   5.546 -11.077  0.00  0.00    +0.087 C 
ATOM      3  C   UNL     1       1.878   5.982 -11.538  0.00  0.00    +0.073 C 
ATOM      4  C   UNL     1       0.827   5.852 -10.729  0.00  0.00    +0.051 C 
ATOM      5  C   UNL     1      -0.336   6.754 -10.953  0.00  0.00    +0.049 C 
ATOM      6  N   UNL     1       0.860   4.942  -9.623  0.00  0.00    -0.221 NA
ATOM      7  C   UNL     1       2.166   4.618  -9.133  0.00  0.00    +0.051 C 
ATOM      8  C   UNL     1       2.329   3.704  -7.958  0.00  0.00    +0.049 C 
ENDROOT
BRANCH   2   9
ATOM      9  C   UNL     1       4.312   6.402 -11.529  0.00  0.00    +0.055 A 
ATOM     10  C   UNL     1       5.169   5.855 -12.478  0.00  0.00    +0.287 A 
ATOM     11  C   UNL     1       6.494   6.266 -12.551  0.00  0.00    +0.075 A 
ATOM     12  C   UNL     1       7.016   7.075 -11.547  0.00  0.00    +0.006 A 
ATOM     13  C   UNL     1       6.086   7.879 -10.901  0.00  0.00    +0.000 A 
ATOM     14  C   UNL     1       4.740   7.535 -10.848  0.00  0.00    +0.002 A 
BRANCH  10  15
ATOM     15  N   UNL     1       4.557   5.228 -13.611  0.00  0.00    +0.081 N 
ATOM     16  O   UNL     1       4.322   3.883 -13.675  0.00  0.00    -0.576 OA
ATOM     17  O   UNL     1       4.510   5.927 -14.655  0.00  0.00    +0.041 OA
ENDBRANCH  10  15
ENDBRANCH   2   9
BRANCH   1  18
ATOM     18  C   UNL     1       4.366   5.531  -8.759  0.00  0.00    +0.339 C 
ATOM     19  O   UNL     1       5.228   4.604  -8.674  0.00  0.00    -0.245 OA
BRANCH  18  21
ATOM     20  C   UNL     1       4.632   5.760  -6.314  0.00  0.00    +0.256 C 
ATOM     21  O   UNL     1       4.122   6.216  -7.564  0.00  0.00    -0.442 OA
ENDBRANCH  18  21
ENDBRANCH   1  18
BRANCH   3  22
ATOM     22  C   UNL     1       1.651   6.260 -12.945  0.00  0.00    +0.339 C 
ATOM     23  O   UNL     1       1.302   5.346 -13.752  0.00  0.00    -0.245 OA
BRANCH  22  24
ATOM     24  O   UNL     1       1.647   7.549 -13.479  0.00  0.00    -0.442 OA
ATOM     25  C   UNL     1       0.689   7.934 -14.464  0.00  0.00    +0.256 C 
ENDBRANCH  22  24
ENDBRANCH   3  22
TORSDOF 6
ENDMDL
MODEL 4
REMARK VINA RESULT:      -5.7      2.038      5.006
REMARK  Name = 
REMARK  6 active torsions:
REMARK  status: ('A' for Active; 'I' for Inactive)
REMARK    1  A    between atoms: O_2  and  C_3
REMARK    2  A    between atoms: C_3  and  C_5
REMARK    3  A    between atoms: C_11  and  C_12
REMARK    4  A    between atoms: C_12  and  O_14
REMARK    5  A    between atoms: C_16  and  C_17
REMARK    6  A    between atoms: C_22  and  N_23
REMARK                            x       y       z     vdW  Elec       q    Type
REMARK                         _______ _______ _______ _____ _____    ______ ____
ROOT
ATOM      1  C   UNL     1       0.676   6.258  -3.844  0.00  0.00    +0.073 C 
ATOM      2  C   UNL     1       0.559   6.648  -2.433  0.00  0.00    +0.087 C 
ATOM      3  C   UNL     1      -0.838   6.737  -1.985  0.00  0.00    +0.073 C 
ATOM      4  C   UNL     1      -1.820   6.688  -2.886  0.00  0.00    +0.051 C 
ATOM      5  C   UNL     1      -3.160   6.232  -2.425  0.00  0.00    +0.049 C 
ATOM      6  N   UNL     1      -1.564   6.970  -4.266  0.00  0.00    -0.221 NA
ATOM      7  C   UNL     1      -0.211   6.774  -4.693  0.00  0.00    +0.051 C 
ATOM      8  C   UNL     1       0.173   7.003  -6.122  0.00  0.00    +0.049 C 
ENDROOT
BRANCH   2   9
ATOM      9  C   UNL     1       1.438   5.893  -1.525  0.00  0.00    +0.055 A 
ATOM     10  C   UNL     1       2.679   6.458  -1.254  0.00  0.00    +0.287 A 
ATOM     11  C   UNL     1       3.764   5.653  -0.931  0.00  0.00    +0.075 A 
ATOM     12  C   UNL     1       3.660   4.273  -1.078  0.00  0.00    +0.006 A 
ATOM     13  C   UNL     1       2.372   3.768  -0.952  0.00  0.00    +0.000 A 
ATOM     14  C   UNL     1       1.255   4.552  -1.212  0.00  0.00    +0.002 A 
BRANCH  10  15
ATOM     15  N   UNL     1       2.689   7.843  -0.886  0.00  0.00    +0.081 N 
ATOM     16  O   UNL     1       3.491   8.764  -1.498  0.00  0.00    -0.576 OA
ATOM     17  O   UNL     1       2.140   8.113   0.212  0.00  0.00    +0.041 OA
ENDBRANCH  10  15
ENDBRANCH   2   9
BRANCH   1  18
ATOM     18  C   UNL     1       1.731   5.382  -4.369  0.00  0.00    +0.339 C 
ATOM     19  O   UNL     1       2.814   5.971  -4.669  0.00  0.00    -0.245 OA
BRANCH  18  21
ATOM     20  C   UNL     1       2.186   3.957  -6.335  0.00  0.00    +0.256 C 
ATOM     21  O   UNL     1       1.365   4.348  -5.237  0.00  0.00    -0.442 OA
ENDBRANCH  18  21
ENDBRANCH   1  18
BRANCH   3  22
ATOM     22  C   UNL     1      -1.144   7.179  -0.636  0.00  0.00    +0.339 C 
ATOM     23  O   UNL     1      -1.313   8.406  -0.364  0.00  0.00    -0.245 OA
BRANCH  22  24
ATOM     24  O   UNL     1      -1.422   6.300   0.412  0.00  0.00    -0.442 OA
ATOM     25  C   UNL     1      -1.948   6.776   1.650  0.00  0.00    +0.256 C 
ENDBRANCH  22  24
ENDBRANCH   3  22
TORSDOF 6
ENDMDL
MODEL 5
REMARK VINA RESULT:      -5.6      1.979      3.406
REMARK  Name = 
REMARK  6 active torsions:
REMARK  status: ('A' for Active; 'I' for Inactive)
REMARK    1  A    between atoms: O_2  and  C_3
REMARK    2  A    between atoms: C_3  and  C_5
REMARK    3  A    between atoms: C_11  and  C_12
REMARK    4  A    between atoms: C_12  and  O_14
REMARK    5  A    between atoms: C_16  and  C_17
REMARK    6  A    between atoms: C_22  and  N_23
REMARK                            x       y       z     vdW  Elec       q    Type
REMARK                         _______ _______ _______ _____ _____    ______ ____
ROOT
ATOM      1  C   UNL     1       1.089   6.073  -2.637  0.00  0.00    +0.073 C 
ATOM      2  C   UNL     1       1.315   5.995  -4.086  0.00  0.00    +0.087 C 
ATOM      3  C   UNL     1       0.273   6.686  -4.859  0.00  0.00    +0.073 C 
ATOM      4  C   UNL     1      -0.835   7.099  -4.242  0.00  0.00    +0.051 C 
ATOM      5  C   UNL     1      -1.588   8.228  -4.854  0.00  0.00    +0.049 C 
ATOM      6  N   UNL     1      -1.228   6.538  -2.984  0.00  0.00    -0.221 NA
ATOM      7  C   UNL     1      -0.168   5.963  -2.211  0.00  0.00    +0.051 C 
ATOM      8  C   UNL     1      -0.448   5.376  -0.863  0.00  0.00    +0.049 C 
ENDROOT
BRANCH   2   9
ATOM      9  C   UNL     1       2.689   6.320  -4.499  0.00  0.00    +0.055 A 
ATOM     10  C   UNL     1       3.420   5.290  -5.082  0.00  0.00    +0.287 A 
ATOM     11  C   UNL     1       4.805   5.265  -4.980  0.00  0.00    +0.075 A 
ATOM     12  C   UNL     1       5.446   6.157  -4.126  0.00  0.00    +0.006 A 
ATOM     13  C   UNL     1       4.766   7.349  -3.910  0.00  0.00    +0.000 A 
ATOM     14  C   UNL     1       3.386   7.436  -4.052  0.00  0.00    +0.002 A 
BRANCH  10  15
ATOM     15  N   UNL     1       2.771   4.550  -6.122  0.00  0.00    +0.081 N 
ATOM     16  O   UNL     1       2.012   3.440  -5.877  0.00  0.00    -0.576 OA
ATOM     17  O   UNL     1       3.168   4.798  -7.289  0.00  0.00    +0.041 OA
ENDBRANCH  10  15
ENDBRANCH   2   9
BRANCH   1  18
ATOM     18  C   UNL     1       2.162   6.213  -1.646  0.00  0.00    +0.339 C 
ATOM     19  O   UNL     1       2.655   5.120  -1.233  0.00  0.00    -0.245 OA
BRANCH  18  21
ATOM     20  C   UNL     1       3.168   7.904  -0.151  0.00  0.00    +0.256 C 
ATOM     21  O   UNL     1       2.038   7.206  -0.668  0.00  0.00    -0.442 OA
ENDBRANCH  18  21
ENDBRANCH   1  18
BRANCH   3  22
ATOM     22  C   UNL     1       0.297   6.651  -6.310  0.00  0.00    +0.339 C 
ATOM     23  O   UNL     1       1.043   7.428  -6.978  0.00  0.00    -0.245 OA
BRANCH  22  24
ATOM     24  O   UNL     1      -0.365   5.680  -7.063  0.00  0.00    -0.442 OA
ATOM     25  C   UNL     1      -0.083   5.507  -8.450  0.00  0.00    +0.256 C 
ENDBRANCH  22  24
ENDBRANCH   3  22
TORSDOF 6
ENDMDL
MODEL 6
REMARK VINA RESULT:      -5.5      2.655      5.988
REMARK  Name = 
REMARK  6 active torsions:
REMARK  status: ('A' for Active; 'I' for Inactive)
REMARK    1  A    between atoms: O_2  and  C_3
REMARK    2  A    between atoms: C_3  and  C_5
REMARK    3  A    between atoms: C_11  and  C_12
REMARK    4  A    between atoms: C_12  and  O_14
REMARK    5  A    between atoms: C_16  and  C_17
REMARK    6  A    between atoms: C_22  and  N_23
REMARK                            x       y       z     vdW  Elec       q    Type
REMARK                         _______ _______ _______ _____ _____    ______ ____
ROOT
ATOM      1  C   UNL     1      -0.521   6.218  -5.522  0.00  0.00    +0.073 C 
ATOM      2  C   UNL     1       0.870   6.302  -5.058  0.00  0.00    +0.087 C 
ATOM      3  C   UNL     1       0.994   6.114  -3.605  0.00  0.00    +0.073 C 
ATOM      4  C   UNL     1      -0.104   6.115  -2.848  0.00  0.00    +0.051 C 
ATOM      5  C   UNL     1      -0.044   5.402  -1.542  0.00  0.00    +0.049 C 
ATOM      6  N   UNL     1      -1.323   6.696  -3.324  0.00  0.00    -0.221 NA
ATOM      7  C   UNL     1      -1.454   6.770  -4.748  0.00  0.00    +0.051 C 
ATOM      8  C   UNL     1      -2.698   7.327  -5.366  0.00  0.00    +0.049 C 
ENDROOT
BRANCH   2   9
ATOM      9  C   UNL     1       1.819   5.506  -5.853  0.00  0.00    +0.055 A 
ATOM     10  C   UNL     1       2.317   6.105  -7.004  0.00  0.00    +0.287 A 
ATOM     11  C   UNL     1       2.714   5.330  -8.087  0.00  0.00    +0.075 A 
ATOM     12  C   UNL     1       2.424   3.970  -8.098  0.00  0.00    +0.006 A 
ATOM     13  C   UNL     1       2.315   3.385  -6.842  0.00  0.00    +0.000 A 
ATOM     14  C   UNL     1       1.973   4.131  -5.721  0.00  0.00    +0.002 A 
BRANCH  10  15
ATOM     15  N   UNL     1       2.812   7.443  -6.870  0.00  0.00    +0.081 N 
ATOM     16  O   UNL     1       2.516   8.434  -7.762  0.00  0.00    -0.576 OA
ATOM     17  O   UNL     1       3.760   7.588  -6.056  0.00  0.00    +0.041 OA
ENDBRANCH  10  15
ENDBRANCH   2   9
BRANCH   1  18
ATOM     18  C   UNL     1      -0.926   5.612  -6.796  0.00  0.00    +0.339 C 
ATOM     19  O   UNL     1      -1.028   4.348  -6.777  0.00  0.00    -0.245 OA
BRANCH  18  21
ATOM     20  C   UNL     1      -0.524   5.465  -9.229  0.00  0.00    +0.256 C 
ATOM     21  O   UNL     1      -0.402   6.141  -7.980  0.00  0.00    -0.442 OA
ENDBRANCH  18  21
ENDBRANCH   1  18
BRANCH   3  22
ATOM     22  C   UNL     1       2.290   6.235  -2.962  0.00  0.00    +0.339 C 
ATOM     23  O   UNL     1       2.747   7.361  -2.602  0.00  0.00    -0.245 OA
BRANCH  22  24
ATOM     24  O   UNL     1       3.050   5.135  -2.561  0.00  0.00    -0.442 OA
ATOM     25  C   UNL     1       3.690   5.110  -1.286  0.00  0.00    +0.256 C 
ENDBRANCH  22  24
ENDBRANCH   3  22
TORSDOF 6
ENDMDL
MODEL 7
REMARK VINA RESULT:      -5.3      5.755      8.610
REMARK  Name = 
REMARK  6 active torsions:
REMARK  status: ('A' for Active; 'I' for Inactive)
REMARK    1  A    between atoms: O_2  and  C_3
REMARK    2  A    between atoms: C_3  and  C_5
REMARK    3  A    between atoms: C_11  and  C_12
REMARK    4  A    between atoms: C_12  and  O_14
REMARK    5  A    between atoms: C_16  and  C_17
REMARK    6  A    between atoms: C_22  and  N_23
REMARK                            x       y       z     vdW  Elec       q    Type
REMARK                         _______ _______ _______ _____ _____    ______ ____
ROOT
ATOM      1  C   UNL     1       2.048   5.885 -10.760  0.00  0.00    +0.073 C 
ATOM      2  C   UNL     1       3.054   5.592  -9.731  0.00  0.00    +0.087 C 
ATOM      3  C   UNL     1       4.411   5.981 -10.141  0.00  0.00    +0.073 C 
ATOM      4  C   UNL     1       4.639   6.328 -11.408  0.00  0.00    +0.051 C 
ATOM      5  C   UNL     1       5.804   7.212 -11.685  0.00  0.00    +0.049 C 
ATOM      6  N   UNL     1       3.735   5.941 -12.449  0.00  0.00    -0.221 NA
ATOM      7  C   UNL     1       2.394   5.668 -12.028  0.00  0.00    +0.051 C 
ATOM      8  C   UNL     1       1.348   5.287 -13.029  0.00  0.00    +0.049 C 
ENDROOT
BRANCH   2   9
ATOM      9  C   UNL     1       2.680   6.038  -8.379  0.00  0.00    +0.055 A 
ATOM     10  C   UNL     1       1.918   5.153  -7.624  0.00  0.00    +0.287 A 
ATOM     11  C   UNL     1       1.049   5.626  -6.649  0.00  0.00    +0.075 A 
ATOM     12  C   UNL     1       0.791   6.991  -6.567  0.00  0.00    +0.006 A 
ATOM     13  C   UNL     1       1.816   7.809  -7.024  0.00  0.00    +0.000 A 
ATOM     14  C   UNL     1       2.742   7.361  -7.959  0.00  0.00    +0.002 A 
BRANCH  10  15
ATOM     15  N   UNL     1       2.375   3.796  -7.570  0.00  0.00    +0.081 N 
ATOM     16  O   UNL     1       2.665   3.069  -8.690  0.00  0.00    -0.576 OA
ATOM     17  O   UNL     1       2.220   3.219  -6.464  0.00  0.00    +0.041 OA
ENDBRANCH  10  15
ENDBRANCH   2   9
BRANCH   1  18
ATOM     18  C   UNL     1       0.687   6.349 -10.468  0.00  0.00    +0.339 C 
ATOM     19  O   UNL     1      -0.183   5.430 -10.375  0.00  0.00    -0.245 OA
BRANCH  18  21
ATOM     20  C   UNL     1      -1.068   7.629 -11.645  0.00  0.00    +0.256 C 
ATOM     21  O   UNL     1       0.237   7.522 -11.084  0.00  0.00    -0.442 OA
ENDBRANCH  18  21
ENDBRANCH   1  18
BRANCH   3  22
ATOM     22  C   UNL     1       5.543   5.700  -9.275  0.00  0.00    +0.339 C 
ATOM     23  O   UNL     1       5.449   4.889  -8.305  0.00  0.00    -0.245 OA
BRANCH  22  24
ATOM     24  O   UNL     1       6.833   6.170  -9.527  0.00  0.00    -0.442 OA
ATOM     25  C   UNL     1       7.930   5.268  -9.659  0.00  0.00    +0.256 C 
ENDBRANCH  22  24
ENDBRANCH   3  22
TORSDOF 6
ENDMDL
MODEL 8
REMARK VINA RESULT:      -5.1      5.953      9.088
REMARK  Name = 
REMARK  6 active torsions:
REMARK  status: ('A' for Active; 'I' for Inactive)
REMARK    1  A    between atoms: O_2  and  C_3
REMARK    2  A    between atoms: C_3  and  C_5
REMARK    3  A    between atoms: C_11  and  C_12
REMARK    4  A    between atoms: C_12  and  O_14
REMARK    5  A    between atoms: C_16  and  C_17
REMARK    6  A    between atoms: C_22  and  N_23
REMARK                            x       y       z     vdW  Elec       q    Type
REMARK                         _______ _______ _______ _____ _____    ______ ____
ROOT
ATOM      1  C   UNL     1       5.009   6.013  -9.666  0.00  0.00    +0.073 C 
ATOM      2  C   UNL     1       3.592   6.083 -10.046  0.00  0.00    +0.087 C 
ATOM      3  C   UNL     1       3.371   5.758 -11.463  0.00  0.00    +0.073 C 
ATOM      4  C   UNL     1       4.417   5.660 -12.284  0.00  0.00    +0.051 C 
ATOM      5  C   UNL     1       4.260   4.827 -13.507  0.00  0.00    +0.049 C 
ATOM      6  N   UNL     1       5.674   6.257 -11.946  0.00  0.00    -0.221 NA
ATOM      7  C   UNL     1       5.898   6.466 -10.547  0.00  0.00    +0.051 C 
ATOM      8  C   UNL     1       7.190   7.052 -10.067  0.00  0.00    +0.049 C 
ENDROOT
BRANCH   2   9
ATOM      9  C   UNL     1       2.684   5.390  -9.118  0.00  0.00    +0.055 A 
ATOM     10  C   UNL     1       2.124   6.163  -8.107  0.00  0.00    +0.287 A 
ATOM     11  C   UNL     1       1.760   5.584  -6.898  0.00  0.00    +0.075 A 
ATOM     12  C   UNL     1       2.141   4.275  -6.623  0.00  0.00    +0.006 A 
ATOM     13  C   UNL     1       2.314   3.470  -7.741  0.00  0.00    +0.000 A 
ATOM     14  C   UNL     1       2.626   4.008  -8.984  0.00  0.00    +0.002 A 
BRANCH  10  15
ATOM     15  N   UNL     1       1.542   7.411  -8.501  0.00  0.00    +0.081 N 
ATOM     16  O   UNL     1       0.659   7.521  -9.539  0.00  0.00    -0.576 OA
ATOM     17  O   UNL     1       2.099   8.437  -8.035  0.00  0.00    +0.041 OA
ENDBRANCH  10  15
ENDBRANCH   2   9
BRANCH   1  18
ATOM     18  C   UNL     1       5.486   5.524  -8.366  0.00  0.00    +0.339 C 
ATOM     19  O   UNL     1       5.634   4.267  -8.290  0.00  0.00    -0.245 OA
BRANCH  18  21
ATOM     20  C   UNL     1       5.162   5.544  -5.917  0.00  0.00    +0.256 C 
ATOM     21  O   UNL     1       4.991   6.128  -7.206  0.00  0.00    -0.442 OA
ENDBRANCH  18  21
ENDBRANCH   1  18
BRANCH   3  22
ATOM     22  C   UNL     1       2.037   5.846 -12.031  0.00  0.00    +0.339 C 
ATOM     23  O   UNL     1       1.636   6.895 -12.619  0.00  0.00    -0.245 OA
BRANCH  22  24
ATOM     24  O   UNL     1       1.166   4.758 -12.109  0.00  0.00    -0.442 OA
ATOM     25  C   UNL     1      -0.100   4.782 -11.454  0.00  0.00    +0.256 C 
ENDBRANCH  22  24
ENDBRANCH   3  22
TORSDOF 6
ENDMDL
MODEL 9
REMARK VINA RESULT:      -5.1      2.951      5.607
REMARK  Name = 
REMARK  6 active torsions:
REMARK  status: ('A' for Active; 'I' for Inactive)
REMARK    1  A    between atoms: O_2  and  C_3
REMARK    2  A    between atoms: C_3  and  C_5
REMARK    3  A    between atoms: C_11  and  C_12
REMARK    4  A    between atoms: C_12  and  O_14
REMARK    5  A    between atoms: C_16  and  C_17
REMARK    6  A    between atoms: C_22  and  N_23
REMARK                            x       y       z     vdW  Elec       q    Type
REMARK                         _______ _______ _______ _____ _____    ______ ____
ROOT
ATOM      1  C   UNL     1       2.989   6.567  -4.117  0.00  0.00    +0.073 C 
ATOM      2  C   UNL     1       2.186   6.956  -5.284  0.00  0.00    +0.087 C 
ATOM      3  C   UNL     1       2.926   6.823  -6.548  0.00  0.00    +0.073 C 
ATOM      4  C   UNL     1       4.240   6.599  -6.518  0.00  0.00    +0.051 C 
ATOM      5  C   UNL     1       4.856   5.938  -7.701  0.00  0.00    +0.049 C 
ATOM      6  N   UNL     1       5.009   6.896  -5.347  0.00  0.00    -0.221 NA
ATOM      7  C   UNL     1       4.273   6.917  -4.118  0.00  0.00    +0.051 C 
ATOM      8  C   UNL     1       4.974   7.182  -2.822  0.00  0.00    +0.049 C 
ENDROOT
BRANCH   2   9
ATOM      9  C   UNL     1       0.837   6.371  -5.309  0.00  0.00    +0.055 A 
ATOM     10  C   UNL     1       0.631   5.328  -6.206  0.00  0.00    +0.287 A 
ATOM     11  C   UNL     1      -0.631   5.095  -6.738  0.00  0.00    +0.075 A 
ATOM     12  C   UNL     1      -1.643   6.026  -6.531  0.00  0.00    +0.006 A 
ATOM     13  C   UNL     1      -1.520   6.776  -5.369  0.00  0.00    +0.000 A 
ATOM     14  C   UNL     1      -0.284   6.991  -4.771  0.00  0.00    +0.002 A 
BRANCH  10  15
ATOM     15  N   UNL     1       1.607   4.279  -6.206  0.00  0.00    +0.081 N 
ATOM     16  O   UNL     1       2.116   3.743  -7.356  0.00  0.00    -0.576 OA
ATOM     17  O   UNL     1       1.755   3.680  -5.111  0.00  0.00    +0.041 OA
ENDBRANCH  10  15
ENDBRANCH   2   9
BRANCH   1  18
ATOM     18  C   UNL     1       2.447   5.867  -2.946  0.00  0.00    +0.339 C 
ATOM     19  O   UNL     1       1.945   6.621  -2.058  0.00  0.00    -0.245 OA
BRANCH  18  21
ATOM     20  C   UNL     1       3.223   4.478  -1.055  0.00  0.00    +0.256 C 
ATOM     21  O   UNL     1       3.147   4.762  -2.450  0.00  0.00    -0.442 OA
ENDBRANCH  18  21
ENDBRANCH   1  18
BRANCH   3  22
ATOM     22  C   UNL     1       2.311   7.232  -7.798  0.00  0.00    +0.339 C 
ATOM     23  O   UNL     1       2.033   8.446  -8.033  0.00  0.00    -0.245 OA
BRANCH  22  24
ATOM     24  O   UNL     1       2.123   6.366  -8.877  0.00  0.00    -0.442 OA
ATOM     25  C   UNL     1       1.079   6.587  -9.823  0.00  0.00    +0.256 C 
ENDBRANCH  22  24
ENDBRANCH   3  22
TORSDOF 6
ENDMDL
