MODEL 1
REMARK VINA RESULT:      -9.3      0.000      0.000
REMARK  Name = 
REMARK  12 active torsions:
REMARK  status: ('A' for Active; 'I' for Inactive)
REMARK    1  A    between atoms: C_2  and  C_3
REMARK    2  A    between atoms: C_3  and  C_4
REMARK    3  A    between atoms: C_3  and  N_7
REMARK    4  A    between atoms: N_10  and  C_11
REMARK    5  A    between atoms: C_14  and  N_15
REMARK    6  A    between atoms: N_18  and  C_19
REMARK    7  A    between atoms: C_22  and  O_23
REMARK    8  A    between atoms: O_23  and  C_24
REMARK    9  A    between atoms: C_24  and  C_25
REMARK   10  A    between atoms: C_28  and  C_29
REMARK   11  A    between atoms: C_28  and  C_35
REMARK   12  A    between atoms: C_29  and  N_30
REMARK                            x       y       z     vdW  Elec       q    Type
REMARK                         _______ _______ _______ _____ _____    ______ ____
ROOT
ATOM      1  C   UNL     1       3.258   6.267  -6.895  0.00  0.00    +0.048 A 
ATOM      2  C   UNL     1       4.038   5.241  -6.401  0.00  0.00    +0.018 A 
ATOM      3  C   UNL     1       4.631   5.267  -5.154  0.00  0.00    +0.038 A 
ATOM      4  C   UNL     1       4.540   6.446  -4.441  0.00  0.00    +0.139 A 
ATOM      5  C   UNL     1       3.625   7.424  -4.797  0.00  0.00    +0.038 A 
ATOM      6  C   UNL     1       2.896   7.229  -5.958  0.00  0.00    +0.018 A 
ENDROOT
BRANCH   1  10
ATOM      7  N   UNL     1       1.142   5.013  -9.217  0.00  0.00    -0.304 N 
ATOM      8  C   UNL     1       0.894   6.060  -8.214  0.00  0.00    +0.112 C 
ATOM      9  C   UNL     1       1.888   7.129  -8.681  0.00  0.00    +0.112 C 
ATOM     10  N   UNL     1       3.174   6.528  -8.304  0.00  0.00    -0.304 N 
ATOM     11  C   UNL     1       3.540   5.411  -9.176  0.00  0.00    +0.112 C 
ATOM     12  C   UNL     1       2.440   4.371  -8.986  0.00  0.00    +0.112 C 
BRANCH   7  16
ATOM     13  C   UNL     1       0.736   6.889 -12.983  0.00  0.00    +0.070 A 
ATOM     14  C   UNL     1       1.775   6.023 -12.732  0.00  0.00    +0.019 A 
ATOM     15  C   UNL     1       1.883   5.330 -11.548  0.00  0.00    +0.016 A 
ATOM     16  C   UNL     1       0.909   5.452 -10.565  0.00  0.00    +0.048 A 
ATOM     17  C   UNL     1      -0.182   6.242 -10.906  0.00  0.00    +0.016 A 
ATOM     18  C   UNL     1      -0.156   7.125 -11.979  0.00  0.00    +0.019 A 
BRANCH  13  22
ATOM     19  N   UNL     1       0.535   8.402 -16.147  0.00  0.00    -0.200 N 
ATOM     20  C   UNL     1       0.898   8.408 -14.859  0.00  0.00    +0.352 A 
ATOM     21  O   UNL     1       0.951   9.452 -14.177  0.00  0.00    -0.244 OA
ATOM     22  N   UNL     1       0.423   7.251 -14.333  0.00  0.00    -0.240 N 
ATOM     23  C   UNL     1       0.266   6.419 -15.378  0.00  0.00    +0.207 A 
ATOM     24  N   UNL     1       0.605   7.113 -16.492  0.00  0.00    -0.144 NA
BRANCH  19  25
ATOM     25  C   UNL     1       1.253   9.368 -17.170  0.00  0.00    +0.140 C 
BRANCH  25  26
ATOM     26  C   UNL     1      -0.266  10.056 -17.701  0.00  0.00    +0.174 C 
ATOM     27  O   UNL     1      -0.227  11.108 -16.585  0.00  0.00    -0.221 OA
ATOM     28  C   UNL     1       0.510  11.094 -18.749  0.00  0.00    +0.038 C 
ENDBRANCH  25  26
BRANCH  25  30
ATOM     29  C   UNL     1       2.061   8.027 -18.745  0.00  0.00    +0.002 C 
ATOM     30  C   UNL     1       1.207   8.219 -18.355  0.00  0.00    +0.027 C 
ENDBRANCH  25  30
ENDBRANCH  19  25
ENDBRANCH  13  22
ENDBRANCH   7  16
ENDBRANCH   1  10
BRANCH   4  31
ATOM     31  O   UNL     1       4.929   6.453  -3.101  0.00  0.00    -0.475 OA
BRANCH  31  32
ATOM     32  C   UNL     1       3.909   6.499  -2.104  0.00  0.00    +0.208 C 
BRANCH  32  33
ATOM     33  C   UNL     1       4.544   7.699  -1.153  0.00  0.00    +0.076 C 
ATOM     34  C   UNL     1       3.050   8.361  -0.887  0.00  0.00    +0.040 C 
ATOM     35  C   UNL     1       3.228   8.656   0.569  0.00  0.00    +0.136 C 
ATOM     36  O   UNL     1       4.264   7.889   1.052  0.00  0.00    -0.352 OA
ATOM     37  C   UNL     1       4.391   6.774   0.212  0.00  0.00    +0.146 C 
BRANCH  35  38
ATOM     38  C   UNL     1       3.465  10.124   0.713  0.00  0.00    +0.032 A 
ATOM     39  C   UNL     1       4.331  10.565   1.709  0.00  0.00    +0.141 A 
ATOM     40  F   UNL     1       4.106  10.016   2.937  0.00  0.00    -0.204 F 
ATOM     41  C   UNL     1       5.106  11.695   1.539  0.00  0.00    +0.059 A 
ATOM     42  C   UNL     1       4.972  12.422   0.364  0.00  0.00    +0.142 A 
ATOM     43  F   UNL     1       5.846  13.419   0.127  0.00  0.00    -0.204 F 
ATOM     44  C   UNL     1       3.927  12.115  -0.499  0.00  0.00    +0.030 A 
ATOM     45  C   UNL     1       3.187  10.947  -0.357  0.00  0.00    +0.003 A 
ENDBRANCH  35  38
BRANCH  35  46
ATOM     46  C   UNL     1       2.019   8.347   1.417  0.00  0.00    +0.160 C 
BRANCH  46  47
ATOM     47  N   UNL     1       0.814   8.181   0.607  0.00  0.00    -0.227 N 
ATOM     48  N   UNL     1      -0.241   8.985   0.726  0.00  0.00    -0.145 NA
ATOM     49  C   UNL     1      -1.380   8.284   0.636  0.00  0.00    +0.221 A 
ATOM     50  N   UNL     1      -1.060   7.012   0.370  0.00  0.00    -0.201 NA
ATOM     51  C   UNL     1       0.281   6.947   0.443  0.00  0.00    +0.197 A 
ENDBRANCH  46  47
ENDBRANCH  35  46
ENDBRANCH  32  33
ENDBRANCH  31  32
ENDBRANCH   4  31
TORSDOF 12
ENDMDL
MODEL 2
REMARK VINA RESULT:      -9.3      1.480      1.903
REMARK  Name = 
REMARK  12 active torsions:
REMARK  status: ('A' for Active; 'I' for Inactive)
REMARK    1  A    between atoms: C_2  and  C_3
REMARK    2  A    between atoms: C_3  and  C_4
REMARK    3  A    between atoms: C_3  and  N_7
REMARK    4  A    between atoms: N_10  and  C_11
REMARK    5  A    between atoms: C_14  and  N_15
REMARK    6  A    between atoms: N_18  and  C_19
REMARK    7  A    between atoms: C_22  and  O_23
REMARK    8  A    between atoms: O_23  and  C_24
REMARK    9  A    between atoms: C_24  and  C_25
REMARK   10  A    between atoms: C_28  and  C_29
REMARK   11  A    between atoms: C_28  and  C_35
REMARK   12  A    between atoms: C_29  and  N_30
REMARK                            x       y       z     vdW  Elec       q    Type
REMARK                         _______ _______ _______ _____ _____    ______ ____
ROOT
ATOM      1  C   UNL     1       3.328   6.040  -5.173  0.00  0.00    +0.048 A 
ATOM      2  C   UNL     1       3.390   4.949  -4.328  0.00  0.00    +0.018 A 
ATOM      3  C   UNL     1       3.919   5.002  -3.054  0.00  0.00    +0.038 A 
ATOM      4  C   UNL     1       4.538   6.179  -2.679  0.00  0.00    +0.139 A 
ATOM      5  C   UNL     1       4.341   7.346  -3.400  0.00  0.00    +0.038 A 
ATOM      6  C   UNL     1       3.606   7.262  -4.570  0.00  0.00    +0.018 A 
ENDROOT
BRANCH   1  10
ATOM      7  N   UNL     1       0.817   5.922  -7.435  0.00  0.00    -0.304 N 
ATOM      8  C   UNL     1       1.395   7.094  -6.761  0.00  0.00    +0.112 C 
ATOM      9  C   UNL     1       2.827   7.046  -7.305  0.00  0.00    +0.112 C 
ATOM     10  N   UNL     1       3.377   5.882  -6.599  0.00  0.00    -0.304 N 
ATOM     11  C   UNL     1       2.843   4.619  -7.113  0.00  0.00    +0.112 C 
ATOM     12  C   UNL     1       1.340   4.681  -6.858  0.00  0.00    +0.112 C 
BRANCH   7  16
ATOM     13  C   UNL     1       1.539   5.750 -11.597  0.00  0.00    +0.070 A 
ATOM     14  C   UNL     1       0.567   4.969 -11.014  0.00  0.00    +0.019 A 
ATOM     15  C   UNL     1       0.249   5.069  -9.679  0.00  0.00    +0.016 A 
ATOM     16  C   UNL     1       0.880   6.004  -8.868  0.00  0.00    +0.048 A 
ATOM     17  C   UNL     1       1.766   6.852  -9.520  0.00  0.00    +0.016 A 
ATOM     18  C   UNL     1       2.263   6.578 -10.790  0.00  0.00    +0.019 A 
BRANCH  13  22
ATOM     19  N   UNL     1       1.289   6.976 -14.879  0.00  0.00    -0.200 N 
ATOM     20  C   UNL     1       1.029   7.055 -13.568  0.00  0.00    +0.352 A 
ATOM     21  O   UNL     1      -0.013   7.573 -13.117  0.00  0.00    -0.244 OA
ATOM     22  N   UNL     1       1.549   5.929 -13.018  0.00  0.00    -0.240 N 
ATOM     23  C   UNL     1       2.491   5.509 -13.879  0.00  0.00    +0.207 A 
ATOM     24  N   UNL     1       2.476   6.362 -14.932  0.00  0.00    -0.144 NA
BRANCH  19  25
ATOM     25  C   UNL     1       1.211   8.274 -15.776  0.00  0.00    +0.140 C 
BRANCH  25  26
ATOM     26  C   UNL     1       0.356   7.432 -17.050  0.00  0.00    +0.174 C 
ATOM     27  O   UNL     1      -0.935   7.401 -16.219  0.00  0.00    -0.221 OA
ATOM     28  C   UNL     1      -0.102   8.868 -17.762  0.00  0.00    +0.038 C 
ENDBRANCH  25  26
BRANCH  25  30
ATOM     29  C   UNL     1       3.230   8.710 -16.589  0.00  0.00    +0.002 C 
ATOM     30  C   UNL     1       2.673   7.940 -16.465  0.00  0.00    +0.027 C 
ENDBRANCH  25  30
ENDBRANCH  19  25
ENDBRANCH  13  22
ENDBRANCH   7  16
ENDBRANCH   1  10
BRANCH   4  31
ATOM     31  O   UNL     1       4.891   6.356  -1.341  0.00  0.00    -0.475 OA
BRANCH  31  32
ATOM     32  C   UNL     1       3.850   6.603  -0.397  0.00  0.00    +0.208 C 
BRANCH  32  33
ATOM     33  C   UNL     1       4.394   8.049   0.202  0.00  0.00    +0.076 C 
ATOM     34  C   UNL     1       2.943   8.788  -0.099  0.00  0.00    +0.040 C 
ATOM     35  C   UNL     1       2.861   9.573   1.172  0.00  0.00    +0.136 C 
ATOM     36  O   UNL     1       3.709   9.006   2.098  0.00  0.00    -0.352 OA
ATOM     37  C   UNL     1       3.895   7.665   1.734  0.00  0.00    +0.146 C 
BRANCH  35  38
ATOM     38  C   UNL     1       3.198  10.993   0.857  0.00  0.00    +0.032 A 
ATOM     39  C   UNL     1       3.869  11.747   1.814  0.00  0.00    +0.141 A 
ATOM     40  F   UNL     1       3.337  11.672   3.068  0.00  0.00    -0.204 F 
ATOM     41  C   UNL     1       4.765  12.734   1.454  0.00  0.00    +0.059 A 
ATOM     42  C   UNL     1       4.953  12.999   0.104  0.00  0.00    +0.142 A 
ATOM     43  F   UNL     1       5.947  13.837  -0.250  0.00  0.00    -0.204 F 
ATOM     44  C   UNL     1       4.092  12.419  -0.820  0.00  0.00    +0.030 A 
ATOM     45  C   UNL     1       3.233  11.387  -0.463  0.00  0.00    +0.003 A 
ENDBRANCH  35  38
BRANCH  35  46
ATOM     46  C   UNL     1       1.487   9.602   1.796  0.00  0.00    +0.160 C 
BRANCH  46  47
ATOM     47  N   UNL     1       0.557   8.711   1.105  0.00  0.00    -0.227 N 
ATOM     48  N   UNL     1      -0.563   9.153   0.534  0.00  0.00    -0.145 NA
ATOM     49  C   UNL     1      -1.568   8.290   0.739  0.00  0.00    +0.221 A 
ATOM     50  N   UNL     1      -1.073   7.227   1.383  0.00  0.00    -0.201 NA
ATOM     51  C   UNL     1       0.202   7.536   1.677  0.00  0.00    +0.197 A 
ENDBRANCH  46  47
ENDBRANCH  35  46
ENDBRANCH  32  33
ENDBRANCH  31  32
ENDBRANCH   4  31
TORSDOF 12
ENDMDL
MODEL 3
REMARK VINA RESULT:      -9.0      4.283     14.462
REMARK  Name = 
REMARK  12 active torsions:
REMARK  status: ('A' for Active; 'I' for Inactive)
REMARK    1  A    between atoms: C_2  and  C_3
REMARK    2  A    between atoms: C_3  and  C_4
REMARK    3  A    between atoms: C_3  and  N_7
REMARK    4  A    between atoms: N_10  and  C_11
REMARK    5  A    between atoms: C_14  and  N_15
REMARK    6  A    between atoms: N_18  and  C_19
REMARK    7  A    between atoms: C_22  and  O_23
REMARK    8  A    between atoms: O_23  and  C_24
REMARK    9  A    between atoms: C_24  and  C_25
REMARK   10  A    between atoms: C_28  and  C_29
REMARK   11  A    between atoms: C_28  and  C_35
REMARK   12  A    between atoms: C_29  and  N_30
REMARK                            x       y       z     vdW  Elec       q    Type
REMARK                         _______ _______ _______ _____ _____    ______ ____
ROOT
ATOM      1  C   UNL     1       1.442   5.980  -9.495  0.00  0.00    +0.048 A 
ATOM      2  C   UNL     1       0.262   5.428  -9.956  0.00  0.00    +0.018 A 
ATOM      3  C   UNL     1      -0.113   5.435 -11.285  0.00  0.00    +0.038 A 
ATOM      4  C   UNL     1       0.678   6.156 -12.157  0.00  0.00    +0.139 A 
ATOM      5  C   UNL     1       1.952   6.561 -11.793  0.00  0.00    +0.038 A 
ATOM      6  C   UNL     1       2.352   6.324 -10.488  0.00  0.00    +0.018 A 
ENDROOT
BRANCH   1  10
ATOM      7  N   UNL     1       2.867   4.665  -6.724  0.00  0.00    -0.304 N 
ATOM      8  C   UNL     1       3.515   5.308  -7.877  0.00  0.00    +0.112 C 
ATOM      9  C   UNL     1       2.941   6.724  -7.761  0.00  0.00    +0.112 C 
ATOM     10  N   UNL     1       1.545   6.516  -8.167  0.00  0.00    -0.304 N 
ATOM     11  C   UNL     1       0.768   5.817  -7.142  0.00  0.00    +0.112 C 
ATOM     12  C   UNL     1       1.439   4.457  -6.982  0.00  0.00    +0.112 C 
BRANCH   7  16
ATOM     13  C   UNL     1       3.915   5.908  -2.822  0.00  0.00    +0.070 A 
ATOM     14  C   UNL     1       4.812   6.006  -3.862  0.00  0.00    +0.019 A 
ATOM     15  C   UNL     1       4.470   5.693  -5.157  0.00  0.00    +0.016 A 
ATOM     16  C   UNL     1       3.176   5.300  -5.473  0.00  0.00    +0.048 A 
ATOM     17  C   UNL     1       2.273   5.330  -4.418  0.00  0.00    +0.016 A 
ATOM     18  C   UNL     1       2.680   5.395  -3.090  0.00  0.00    +0.019 A 
BRANCH  13  22
ATOM     19  N   UNL     1       3.850   8.144  -0.114  0.00  0.00    -0.200 N 
ATOM     20  C   UNL     1       3.502   7.787  -1.356  0.00  0.00    +0.352 A 
ATOM     21  O   UNL     1       3.292   8.617  -2.264  0.00  0.00    -0.244 OA
ATOM     22  N   UNL     1       4.156   6.625  -1.606  0.00  0.00    -0.240 N 
ATOM     23  C   UNL     1       4.432   6.101  -0.399  0.00  0.00    +0.207 A 
ATOM     24  N   UNL     1       3.979   6.979   0.529  0.00  0.00    -0.144 NA
BRANCH  19  25
ATOM     25  C   UNL     1       2.980   9.204   0.672  0.00  0.00    +0.140 C 
BRANCH  25  26
ATOM     26  C   UNL     1       4.351  10.268   0.901  0.00  0.00    +0.174 C 
ATOM     27  O   UNL     1       4.011  11.048  -0.376  0.00  0.00    -0.221 OA
ATOM     28  C   UNL     1       3.445  11.322   1.822  0.00  0.00    +0.038 C 
ENDBRANCH  25  26
BRANCH  25  30
ATOM     29  C   UNL     1       2.472   8.158   2.563  0.00  0.00    +0.002 C 
ATOM     30  C   UNL     1       3.266   8.440   2.107  0.00  0.00    +0.027 C 
ENDBRANCH  25  30
ENDBRANCH  19  25
ENDBRANCH  13  22
ENDBRANCH   7  16
ENDBRANCH   1  10
BRANCH   4  31
ATOM     31  O   UNL     1       0.466   6.015 -13.529  0.00  0.00    -0.475 OA
BRANCH  31  32
ATOM     32  C   UNL     1       1.417   6.597 -14.420  0.00  0.00    +0.208 C 
BRANCH  32  33
ATOM     33  C   UNL     1       0.501   7.865 -14.969  0.00  0.00    +0.076 C 
ATOM     34  C   UNL     1       1.846   8.729 -15.397  0.00  0.00    +0.040 C 
ATOM     35  C   UNL     1       1.330   9.254 -16.699  0.00  0.00    +0.136 C 
ATOM     36  O   UNL     1       0.273   8.470 -17.104  0.00  0.00    -0.352 OA
ATOM     37  C   UNL     1       0.418   7.218 -16.490  0.00  0.00    +0.146 C 
BRANCH  35  38
ATOM     38  C   UNL     1       0.959  10.687 -16.502  0.00  0.00    +0.032 A 
ATOM     39  C   UNL     1      -0.071  11.220 -17.270  0.00  0.00    +0.141 A 
ATOM     40  F   UNL     1       0.021  10.952 -18.604  0.00  0.00    -0.204 F 
ATOM     41  C   UNL     1      -0.902  12.205 -16.774  0.00  0.00    +0.059 A 
ATOM     42  C   UNL     1      -0.662  12.696 -15.498  0.00  0.00    +0.142 A 
ATOM     43  F   UNL     1      -1.571  13.527 -14.951  0.00  0.00    -0.204 F 
ATOM     44  C   UNL     1       0.516  12.338 -14.852  0.00  0.00    +0.030 A 
ATOM     45  C   UNL     1       1.318  11.307 -15.326  0.00  0.00    +0.003 A 
ENDBRANCH  35  38
BRANCH  35  46
ATOM     46  C   UNL     1       2.342   9.238 -17.819  0.00  0.00    +0.160 C 
BRANCH  46  47
ATOM     47  N   UNL     1       3.699   9.021 -17.322  0.00  0.00    -0.227 N 
ATOM     48  N   UNL     1       4.559  10.021 -17.135  0.00  0.00    -0.145 NA
ATOM     49  C   UNL     1       5.792   9.661 -17.518  0.00  0.00    +0.221 A 
ATOM     50  N   UNL     1       5.750   8.374 -17.883  0.00  0.00    -0.201 NA
ATOM     51  C   UNL     1       4.453   8.022 -17.842  0.00  0.00    +0.197 A 
ENDBRANCH  46  47
ENDBRANCH  35  46
ENDBRANCH  32  33
ENDBRANCH  31  32
ENDBRANCH   4  31
TORSDOF 12
ENDMDL
MODEL 4
REMARK VINA RESULT:      -8.9      3.161      4.667
REMARK  Name = 
REMARK  12 active torsions:
REMARK  status: ('A' for Active; 'I' for Inactive)
REMARK    1  A    between atoms: C_2  and  C_3
REMARK    2  A    between atoms: C_3  and  C_4
REMARK    3  A    between atoms: C_3  and  N_7
REMARK    4  A    between atoms: N_10  and  C_11
REMARK    5  A    between atoms: C_14  and  N_15
REMARK    6  A    between atoms: N_18  and  C_19
REMARK    7  A    between atoms: C_22  and  O_23
REMARK    8  A    between atoms: O_23  and  C_24
REMARK    9  A    between atoms: C_24  and  C_25
REMARK   10  A    between atoms: C_28  and  C_29
REMARK   11  A    between atoms: C_28  and  C_35
REMARK   12  A    between atoms: C_29  and  N_30
REMARK                            x       y       z     vdW  Elec       q    Type
REMARK                         _______ _______ _______ _____ _____    ______ ____
ROOT
ATOM      1  C   UNL     1       4.333   5.882  -5.882  0.00  0.00    +0.048 A 
ATOM      2  C   UNL     1       4.067   7.055  -5.203  0.00  0.00    +0.018 A 
ATOM      3  C   UNL     1       3.762   7.102  -3.857  0.00  0.00    +0.038 A 
ATOM      4  C   UNL     1       3.582   5.895  -3.211  0.00  0.00    +0.139 A 
ATOM      5  C   UNL     1       4.015   4.711  -3.784  0.00  0.00    +0.038 A 
ATOM      6  C   UNL     1       4.521   4.767  -5.072  0.00  0.00    +0.018 A 
ENDROOT
BRANCH   1  10
ATOM      7  N   UNL     1       1.354   5.688  -7.472  0.00  0.00    -0.304 N 
ATOM      8  C   UNL     1       2.033   6.874  -6.928  0.00  0.00    +0.112 C 
ATOM      9  C   UNL     1       3.290   6.897  -7.803  0.00  0.00    +0.112 C 
ATOM     10  N   UNL     1       4.040   5.748  -7.282  0.00  0.00    -0.304 N 
ATOM     11  C   UNL     1       3.447   4.470  -7.683  0.00  0.00    +0.112 C 
ATOM     12  C   UNL     1       2.050   4.462  -7.070  0.00  0.00    +0.112 C 
BRANCH   7  16
ATOM     13  C   UNL     1       1.112   5.719 -11.692  0.00  0.00    +0.070 A 
ATOM     14  C   UNL     1       0.495   4.734 -10.955  0.00  0.00    +0.019 A 
ATOM     15  C   UNL     1       0.482   4.748  -9.579  0.00  0.00    +0.016 A 
ATOM     16  C   UNL     1       1.064   5.794  -8.875  0.00  0.00    +0.048 A 
ATOM     17  C   UNL     1       1.569   6.826  -9.657  0.00  0.00    +0.016 A 
ATOM     18  C   UNL     1       1.805   6.682 -11.019  0.00  0.00    +0.019 A 
BRANCH  13  22
ATOM     19  N   UNL     1       0.323   7.011 -14.862  0.00  0.00    -0.200 N 
ATOM     20  C   UNL     1       0.515   7.155 -13.545  0.00  0.00    +0.352 A 
ATOM     21  O   UNL     1      -0.093   8.004 -12.862  0.00  0.00    -0.244 OA
ATOM     22  N   UNL     1       0.753   5.908 -13.066  0.00  0.00    -0.240 N 
ATOM     23  C   UNL     1       1.184   5.193 -14.120  0.00  0.00    +0.207 A 
ATOM     24  N   UNL     1       1.148   6.014 -15.198  0.00  0.00    -0.144 NA
BRANCH  19  25
ATOM     25  C   UNL     1       0.433   8.267 -15.814  0.00  0.00    +0.140 C 
BRANCH  25  26
ATOM     26  C   UNL     1      -0.283   7.403 -17.158  0.00  0.00    +0.174 C 
ATOM     27  O   UNL     1      -1.663   7.419 -16.487  0.00  0.00    -0.221 OA
ATOM     28  C   UNL     1      -0.622   8.825 -17.959  0.00  0.00    +0.038 C 
ENDBRANCH  25  26
BRANCH  25  30
ATOM     29  C   UNL     1       2.547   8.579 -16.413  0.00  0.00    +0.002 C 
ATOM     30  C   UNL     1       1.956   7.836 -16.280  0.00  0.00    +0.027 C 
ENDBRANCH  25  30
ENDBRANCH  19  25
ENDBRANCH  13  22
ENDBRANCH   7  16
ENDBRANCH   1  10
BRANCH   4  31
ATOM     31  O   UNL     1       3.489   5.885  -1.819  0.00  0.00    -0.475 OA
BRANCH  31  32
ATOM     32  C   UNL     1       2.309   5.344  -1.227  0.00  0.00    +0.208 C 
BRANCH  32  33
ATOM     33  C   UNL     1       1.186   6.283  -2.007  0.00  0.00    +0.076 C 
ATOM     34  C   UNL     1      -0.044   5.252  -1.603  0.00  0.00    +0.040 C 
ATOM     35  C   UNL     1      -1.062   6.294  -1.260  0.00  0.00    +0.136 C 
ATOM     36  O   UNL     1      -0.412   7.483  -1.016  0.00  0.00    -0.352 OA
ATOM     37  C   UNL     1       0.903   7.176  -0.641  0.00  0.00    +0.146 C 
BRANCH  35  38
ATOM     38  C   UNL     1      -2.034   6.375  -2.391  0.00  0.00    +0.032 A 
ATOM     39  C   UNL     1      -2.051   7.526  -3.174  0.00  0.00    +0.141 A 
ATOM     40  F   UNL     1      -2.076   8.691  -2.466  0.00  0.00    -0.204 F 
ATOM     41  C   UNL     1      -2.360   7.475  -4.518  0.00  0.00    +0.059 A 
ATOM     42  C   UNL     1      -2.705   6.251  -5.075  0.00  0.00    +0.142 A 
ATOM     43  F   UNL     1      -2.838   6.173  -6.414  0.00  0.00    -0.204 F 
ATOM     44  C   UNL     1      -2.931   5.171  -4.232  0.00  0.00    +0.030 A 
ATOM     45  C   UNL     1      -2.565   5.207  -2.891  0.00  0.00    +0.003 A 
ENDBRANCH  35  38
BRANCH  35  46
ATOM     46  C   UNL     1      -1.881   5.981  -0.032  0.00  0.00    +0.160 C 
BRANCH  46  47
ATOM     47  N   UNL     1      -1.757   7.022   0.986  0.00  0.00    -0.227 N 
ATOM     48  N   UNL     1      -1.249   6.782   2.194  0.00  0.00    -0.145 NA
ATOM     49  C   UNL     1      -1.937   7.444   3.134  0.00  0.00    +0.221 A 
ATOM     50  N   UNL     1      -2.856   8.196   2.518  0.00  0.00    -0.201 NA
ATOM     51  C   UNL     1      -2.793   7.862   1.218  0.00  0.00    +0.197 A 
ENDBRANCH  46  47
ENDBRANCH  35  46
ENDBRANCH  32  33
ENDBRANCH  31  32
ENDBRANCH   4  31
TORSDOF 12
ENDMDL
MODEL 5
REMARK VINA RESULT:      -8.9      4.143     13.384
REMARK  Name = 
REMARK  12 active torsions:
REMARK  status: ('A' for Active; 'I' for Inactive)
REMARK    1  A    between atoms: C_2  and  C_3
REMARK    2  A    between atoms: C_3  and  C_4
REMARK    3  A    between atoms: C_3  and  N_7
REMARK    4  A    between atoms: N_10  and  C_11
REMARK    5  A    between atoms: C_14  and  N_15
REMARK    6  A    between atoms: N_18  and  C_19
REMARK    7  A    between atoms: C_22  and  O_23
REMARK    8  A    between atoms: O_23  and  C_24
REMARK    9  A    between atoms: C_24  and  C_25
REMARK   10  A    between atoms: C_28  and  C_29
REMARK   11  A    between atoms: C_28  and  C_35
REMARK   12  A    between atoms: C_29  and  N_30
REMARK                            x       y       z     vdW  Elec       q    Type
REMARK                         _______ _______ _______ _____ _____    ______ ____
ROOT
ATOM      1  C   UNL     1       0.327   5.851  -9.622  0.00  0.00    +0.048 A 
ATOM      2  C   UNL     1       0.566   6.924 -10.459  0.00  0.00    +0.018 A 
ATOM      3  C   UNL     1       0.990   6.789 -11.766  0.00  0.00    +0.038 A 
ATOM      4  C   UNL     1       1.319   5.517 -12.192  0.00  0.00    +0.139 A 
ATOM      5  C   UNL     1       0.925   4.402 -11.471  0.00  0.00    +0.038 A 
ATOM      6  C   UNL     1       0.299   4.612 -10.253  0.00  0.00    +0.018 A 
ENDROOT
BRANCH   1  10
ATOM      7  N   UNL     1       3.073   5.332  -7.716  0.00  0.00    -0.304 N 
ATOM      8  C   UNL     1       2.739   6.493  -8.553  0.00  0.00    +0.112 C 
ATOM      9  C   UNL     1       1.479   6.994  -7.840  0.00  0.00    +0.112 C 
ATOM     10  N   UNL     1       0.499   5.962  -8.200  0.00  0.00    -0.304 N 
ATOM     11  C   UNL     1       0.735   4.702  -7.493  0.00  0.00    +0.112 C 
ATOM     12  C   UNL     1       2.119   4.241  -7.939  0.00  0.00    +0.112 C 
BRANCH   7  16
ATOM     13  C   UNL     1       4.106   5.763  -3.639  0.00  0.00    +0.070 A 
ATOM     14  C   UNL     1       4.788   6.448  -4.619  0.00  0.00    +0.019 A 
ATOM     15  C   UNL     1       4.418   6.397  -5.943  0.00  0.00    +0.016 A 
ATOM     16  C   UNL     1       3.300   5.672  -6.339  0.00  0.00    +0.048 A 
ATOM     17  C   UNL     1       2.572   5.096  -5.306  0.00  0.00    +0.016 A 
ATOM     18  C   UNL     1       3.090   4.940  -4.025  0.00  0.00    +0.019 A 
BRANCH  13  22
ATOM     19  N   UNL     1       3.911   7.379  -0.526  0.00  0.00    -0.200 N 
ATOM     20  C   UNL     1       3.733   7.351  -1.853  0.00  0.00    +0.352 A 
ATOM     21  O   UNL     1       3.810   8.371  -2.567  0.00  0.00    -0.244 OA
ATOM     22  N   UNL     1       4.239   6.163  -2.270  0.00  0.00    -0.240 N 
ATOM     23  C   UNL     1       4.221   5.364  -1.190  0.00  0.00    +0.207 A 
ATOM     24  N   UNL     1       3.752   6.104  -0.156  0.00  0.00    -0.144 NA
BRANCH  19  25
ATOM     25  C   UNL     1       3.088   8.399   0.356  0.00  0.00    +0.140 C 
BRANCH  25  26
ATOM     26  C   UNL     1       3.884   7.882   1.827  0.00  0.00    +0.174 C 
ATOM     27  O   UNL     1       5.137   8.701   1.486  0.00  0.00    -0.221 OA
ATOM     28  C   UNL     1       3.244   9.161   2.684  0.00  0.00    +0.038 C 
ENDBRANCH  25  26
BRANCH  25  30
ATOM     29  C   UNL     1       0.998   7.651   0.380  0.00  0.00    +0.002 C 
ATOM     30  C   UNL     1       1.872   7.303   0.567  0.00  0.00    +0.027 C 
ENDBRANCH  25  30
ENDBRANCH  19  25
ENDBRANCH  13  22
ENDBRANCH   7  16
ENDBRANCH   1  10
BRANCH   4  31
ATOM     31  O   UNL     1       1.540   5.301 -13.552  0.00  0.00    -0.475 OA
BRANCH  31  32
ATOM     32  C   UNL     1       2.792   4.743 -13.949  0.00  0.00    +0.208 C 
BRANCH  32  33
ATOM     33  C   UNL     1       3.797   5.849 -13.231  0.00  0.00    +0.076 C 
ATOM     34  C   UNL     1       5.135   4.925 -13.543  0.00  0.00    +0.040 C 
ATOM     35  C   UNL     1       6.045   6.039 -13.952  0.00  0.00    +0.136 C 
ATOM     36  O   UNL     1       5.281   7.133 -14.292  0.00  0.00    -0.352 OA
ATOM     37  C   UNL     1       4.011   6.663 -14.657  0.00  0.00    +0.146 C 
BRANCH  35  38
ATOM     38  C   UNL     1       6.983   6.305 -12.820  0.00  0.00    +0.032 A 
ATOM     39  C   UNL     1       6.670   7.318 -11.920  0.00  0.00    +0.141 A 
ATOM     40  F   UNL     1       6.309   8.499 -12.500  0.00  0.00    -0.204 F 
ATOM     41  C   UNL     1       7.025   7.232 -10.588  0.00  0.00    +0.059 A 
ATOM     42  C   UNL     1       7.751   6.126 -10.165  0.00  0.00    +0.142 A 
ATOM     43  F   UNL     1       7.947   5.959  -8.842  0.00  0.00    -0.204 F 
ATOM     44  C   UNL     1       8.271   5.260 -11.119  0.00  0.00    +0.030 A 
ATOM     45  C   UNL     1       7.866   5.315 -12.447  0.00  0.00    +0.003 A 
ENDBRANCH  35  38
BRANCH  35  46
ATOM     46  C   UNL     1       6.915   5.723 -15.145  0.00  0.00    +0.160 C 
BRANCH  46  47
ATOM     47  N   UNL     1       6.787   6.732 -16.194  0.00  0.00    -0.227 N 
ATOM     48  N   UNL     1       6.255   6.459 -17.384  0.00  0.00    -0.145 NA
ATOM     49  C   UNL     1       6.935   7.080 -18.358  0.00  0.00    +0.221 A 
ATOM     50  N   UNL     1       7.876   7.838 -17.783  0.00  0.00    -0.201 NA
ATOM     51  C   UNL     1       7.832   7.549 -16.471  0.00  0.00    +0.197 A 
ENDBRANCH  46  47
ENDBRANCH  35  46
ENDBRANCH  32  33
ENDBRANCH  31  32
ENDBRANCH   4  31
TORSDOF 12
ENDMDL
MODEL 6
REMARK VINA RESULT:      -8.3      2.601      3.417
REMARK  Name = 
REMARK  12 active torsions:
REMARK  status: ('A' for Active; 'I' for Inactive)
REMARK    1  A    between atoms: C_2  and  C_3
REMARK    2  A    between atoms: C_3  and  C_4
REMARK    3  A    between atoms: C_3  and  N_7
REMARK    4  A    between atoms: N_10  and  C_11
REMARK    5  A    between atoms: C_14  and  N_15
REMARK    6  A    between atoms: N_18  and  C_19
REMARK    7  A    between atoms: C_22  and  O_23
REMARK    8  A    between atoms: O_23  and  C_24
REMARK    9  A    between atoms: C_24  and  C_25
REMARK   10  A    between atoms: C_28  and  C_29
REMARK   11  A    between atoms: C_28  and  C_35
REMARK   12  A    between atoms: C_29  and  N_30
REMARK                            x       y       z     vdW  Elec       q    Type
REMARK                         _______ _______ _______ _____ _____    ______ ____
ROOT
ATOM      1  C   UNL     1       3.996   5.552  -7.207  0.00  0.00    +0.048 A 
ATOM      2  C   UNL     1       4.538   6.527  -6.393  0.00  0.00    +0.018 A 
ATOM      3  C   UNL     1       4.209   6.674  -5.060  0.00  0.00    +0.038 A 
ATOM      4  C   UNL     1       3.184   5.886  -4.575  0.00  0.00    +0.139 A 
ATOM      5  C   UNL     1       2.744   4.779  -5.282  0.00  0.00    +0.038 A 
ATOM      6  C   UNL     1       3.282   4.563  -6.539  0.00  0.00    +0.018 A 
ENDROOT
BRANCH   1  10
ATOM      7  N   UNL     1       1.186   5.846  -9.065  0.00  0.00    -0.304 N 
ATOM      8  C   UNL     1       1.824   6.845  -8.195  0.00  0.00    +0.112 C 
ATOM      9  C   UNL     1       3.162   7.027  -8.920  0.00  0.00    +0.112 C 
ATOM     10  N   UNL     1       3.841   5.761  -8.620  0.00  0.00    -0.304 N 
ATOM     11  C   UNL     1       3.273   4.637  -9.366  0.00  0.00    +0.112 C 
ATOM     12  C   UNL     1       1.822   4.536  -8.904  0.00  0.00    +0.112 C 
BRANCH   7  16
ATOM     13  C   UNL     1       0.323   6.630 -13.129  0.00  0.00    +0.070 A 
ATOM     14  C   UNL     1      -0.304   7.330 -12.124  0.00  0.00    +0.019 A 
ATOM     15  C   UNL     1       0.020   7.160 -10.798  0.00  0.00    +0.016 A 
ATOM     16  C   UNL     1       1.037   6.290 -10.424  0.00  0.00    +0.048 A 
ATOM     17  C   UNL     1       1.725   5.695 -11.474  0.00  0.00    +0.016 A 
ATOM     18  C   UNL     1       1.228   5.674 -12.773  0.00  0.00    +0.019 A 
BRANCH  13  22
ATOM     19  N   UNL     1       0.765   8.408 -16.126  0.00  0.00    -0.200 N 
ATOM     20  C   UNL     1       0.890   8.285 -14.799  0.00  0.00    +0.352 A 
ATOM     21  O   UNL     1       0.869   9.264 -14.025  0.00  0.00    -0.244 OA
ATOM     22  N   UNL     1       0.275   7.120 -14.474  0.00  0.00    -0.240 N 
ATOM     23  C   UNL     1       0.270   6.389 -15.602  0.00  0.00    +0.207 A 
ATOM     24  N   UNL     1       0.836   7.149 -16.571  0.00  0.00    -0.144 NA
BRANCH  19  25
ATOM     25  C   UNL     1       1.701   9.407 -16.914  0.00  0.00    +0.140 C 
BRANCH  25  26
ATOM     26  C   UNL     1       0.372  10.000 -17.887  0.00  0.00    +0.174 C 
ATOM     27  O   UNL     1      -0.130  10.885 -16.738  0.00  0.00    -0.221 OA
ATOM     28  C   UNL     1       1.299  11.250 -18.485  0.00  0.00    +0.038 C 
ENDBRANCH  25  26
BRANCH  25  30
ATOM     29  C   UNL     1       3.006   8.193 -18.238  0.00  0.00    +0.002 C 
ATOM     30  C   UNL     1       2.071   8.250 -18.031  0.00  0.00    +0.027 C 
ENDBRANCH  25  30
ENDBRANCH  19  25
ENDBRANCH  13  22
ENDBRANCH   7  16
ENDBRANCH   1  10
BRANCH   4  31
ATOM     31  O   UNL     1       2.964   5.842  -3.198  0.00  0.00    -0.475 OA
BRANCH  31  32
ATOM     32  C   UNL     1       3.844   6.580  -2.352  0.00  0.00    +0.208 C 
BRANCH  32  33
ATOM     33  C   UNL     1       3.025   6.400  -0.922  0.00  0.00    +0.076 C 
ATOM     34  C   UNL     1       1.613   6.946  -1.593  0.00  0.00    +0.040 C 
ATOM     35  C   UNL     1       0.698   5.954  -0.947  0.00  0.00    +0.136 C 
ATOM     36  O   UNL     1       1.443   4.879  -0.517  0.00  0.00    -0.352 OA
ATOM     37  C   UNL     1       2.611   4.840  -1.291  0.00  0.00    +0.146 C 
BRANCH  35  38
ATOM     38  C   UNL     1      -0.024   6.650   0.160  0.00  0.00    +0.032 A 
ATOM     39  C   UNL     1       0.605   7.714   0.801  0.00  0.00    +0.141 A 
ATOM     40  F   UNL     1       1.891   7.464   1.181  0.00  0.00    -0.204 F 
ATOM     41  C   UNL     1      -0.116   8.779   1.302  0.00  0.00    +0.059 A 
ATOM     42  C   UNL     1      -1.500   8.751   1.199  0.00  0.00    +0.142 A 
ATOM     43  F   UNL     1      -2.188   9.862   1.530  0.00  0.00    -0.204 F 
ATOM     44  C   UNL     1      -2.119   7.576   0.792  0.00  0.00    +0.030 A 
ATOM     45  C   UNL     1      -1.394   6.529   0.235  0.00  0.00    +0.003 A 
ENDBRANCH  35  38
BRANCH  35  46
ATOM     46  C   UNL     1      -0.372   5.410  -1.861  0.00  0.00    +0.160 C 
BRANCH  46  47
ATOM     47  N   UNL     1      -0.495   6.199  -3.085  0.00  0.00    -0.227 N 
ATOM     48  N   UNL     1      -1.412   7.155  -3.228  0.00  0.00    -0.145 NA
ATOM     49  C   UNL     1      -1.925   7.134  -4.465  0.00  0.00    +0.221 A 
ATOM     50  N   UNL     1      -1.271   6.201  -5.167  0.00  0.00    -0.201 NA
ATOM     51  C   UNL     1      -0.464   5.579  -4.289  0.00  0.00    +0.197 A 
ENDBRANCH  46  47
ENDBRANCH  35  46
ENDBRANCH  32  33
ENDBRANCH  31  32
ENDBRANCH   4  31
TORSDOF 12
ENDMDL
MODEL 7
REMARK VINA RESULT:      -8.1      3.853     13.595
REMARK  Name = 
REMARK  12 active torsions:
REMARK  status: ('A' for Active; 'I' for Inactive)
REMARK    1  A    between atoms: C_2  and  C_3
REMARK    2  A    between atoms: C_3  and  C_4
REMARK    3  A    between atoms: C_3  and  N_7
REMARK    4  A    between atoms: N_10  and  C_11
REMARK    5  A    between atoms: C_14  and  N_15
REMARK    6  A    between atoms: N_18  and  C_19
REMARK    7  A    between atoms: C_22  and  O_23
REMARK    8  A    between atoms: O_23  and  C_24
REMARK    9  A    between atoms: C_24  and  C_25
REMARK   10  A    between atoms: C_28  and  C_29
REMARK   11  A    between atoms: C_28  and  C_35
REMARK   12  A    between atoms: C_29  and  N_30
REMARK                            x       y       z     vdW  Elec       q    Type
REMARK                         _______ _______ _______ _____ _____    ______ ____
ROOT
ATOM      1  C   UNL     1       1.128   5.652  -6.854  0.00  0.00    +0.048 A 
ATOM      2  C   UNL     1       0.000   5.782  -7.640  0.00  0.00    +0.018 A 
ATOM      3  C   UNL     1      -0.083   5.309  -8.935  0.00  0.00    +0.038 A 
ATOM      4  C   UNL     1       1.076   4.812  -9.498  0.00  0.00    +0.139 A 
ATOM      5  C   UNL     1       2.167   4.487  -8.709  0.00  0.00    +0.038 A 
ATOM      6  C   UNL     1       2.098   4.793  -7.359  0.00  0.00    +0.018 A 
ENDROOT
BRANCH   1  10
ATOM      7  N   UNL     1       2.033   5.188  -3.628  0.00  0.00    -0.304 N 
ATOM      8  C   UNL     1       2.849   5.047  -4.844  0.00  0.00    +0.112 C 
ATOM      9  C   UNL     1       2.824   6.490  -5.360  0.00  0.00    +0.112 C 
ATOM     10  N   UNL     1       1.441   6.615  -5.835  0.00  0.00    -0.304 N 
ATOM     11  C   UNL     1       0.482   6.700  -4.732  0.00  0.00    +0.112 C 
ATOM     12  C   UNL     1       0.622   5.384  -3.972  0.00  0.00    +0.112 C 
BRANCH   7  16
ATOM     13  C   UNL     1       3.715   7.435  -0.467  0.00  0.00    +0.070 A 
ATOM     14  C   UNL     1       4.472   7.068  -1.556  0.00  0.00    +0.019 A 
ATOM     15  C   UNL     1       3.931   6.414  -2.639  0.00  0.00    +0.016 A 
ATOM     16  C   UNL     1       2.571   6.134  -2.691  0.00  0.00    +0.048 A 
ATOM     17  C   UNL     1       1.824   6.628  -1.629  0.00  0.00    +0.016 A 
ATOM     18  C   UNL     1       2.407   7.049  -0.439  0.00  0.00    +0.019 A 
BRANCH  13  22
ATOM     19  N   UNL     1       4.291  10.416   1.299  0.00  0.00    -0.200 N 
ATOM     20  C   UNL     1       3.769   9.739   0.270  0.00  0.00    +0.352 A 
ATOM     21  O   UNL     1       3.616  10.241  -0.862  0.00  0.00    -0.244 OA
ATOM     22  N   UNL     1       4.190   8.457   0.417  0.00  0.00    -0.240 N 
ATOM     23  C   UNL     1       4.488   8.323   1.721  0.00  0.00    +0.207 A 
ATOM     24  N   UNL     1       4.283   9.531   2.301  0.00  0.00    -0.144 NA
BRANCH  19  25
ATOM     25  C   UNL     1       3.694  11.823   1.697  0.00  0.00    +0.140 C 
BRANCH  25  26
ATOM     26  C   UNL     1       5.269  12.453   2.128  0.00  0.00    +0.174 C 
ATOM     27  O   UNL     1       5.648  12.629   0.651  0.00  0.00    -0.221 OA
ATOM     28  C   UNL     1       4.685  14.013   2.196  0.00  0.00    +0.038 C 
ENDBRANCH  25  26
BRANCH  25  30
ATOM     29  C   UNL     1       2.523  11.481   3.552  0.00  0.00    +0.002 C 
ATOM     30  C   UNL     1       3.415  11.317   3.243  0.00  0.00    +0.027 C 
ENDBRANCH  25  30
ENDBRANCH  19  25
ENDBRANCH  13  22
ENDBRANCH   7  16
ENDBRANCH   1  10
BRANCH   4  31
ATOM     31  O   UNL     1       0.994   4.130 -10.712  0.00  0.00    -0.475 OA
BRANCH  31  32
ATOM     32  C   UNL     1       0.982   4.897 -11.915  0.00  0.00    +0.208 C 
BRANCH  32  33
ATOM     33  C   UNL     1       2.206   5.953 -11.551  0.00  0.00    +0.076 C 
ATOM     34  C   UNL     1       3.352   4.932 -12.174  0.00  0.00    +0.040 C 
ATOM     35  C   UNL     1       4.176   5.971 -12.867  0.00  0.00    +0.136 C 
ATOM     36  O   UNL     1       3.410   7.103 -13.035  0.00  0.00    -0.352 OA
ATOM     37  C   UNL     1       2.065   6.709 -13.017  0.00  0.00    +0.146 C 
BRANCH  35  38
ATOM     38  C   UNL     1       5.403   6.205 -12.048  0.00  0.00    +0.032 A 
ATOM     39  C   UNL     1       5.253   6.567 -10.713  0.00  0.00    +0.141 A 
ATOM     40  F   UNL     1       4.361   7.576 -10.496  0.00  0.00    -0.204 F 
ATOM     41  C   UNL     1       6.170   6.179  -9.756  0.00  0.00    +0.059 A 
ATOM     42  C   UNL     1       7.283   5.453 -10.158  0.00  0.00    +0.142 A 
ATOM     43  F   UNL     1       8.082   4.929  -9.208  0.00  0.00    -0.204 F 
ATOM     44  C   UNL     1       7.544   5.324 -11.517  0.00  0.00    +0.030 A 
ATOM     45  C   UNL     1       6.595   5.663 -12.474  0.00  0.00    +0.003 A 
ENDBRANCH  35  38
BRANCH  35  46
ATOM     46  C   UNL     1       4.664   5.563 -14.236  0.00  0.00    +0.160 C 
BRANCH  46  47
ATOM     47  N   UNL     1       4.782   6.709 -15.135  0.00  0.00    -0.227 N 
ATOM     48  N   UNL     1       3.990   6.870 -16.194  0.00  0.00    -0.145 NA
ATOM     49  C   UNL     1       4.687   7.342 -17.236  0.00  0.00    +0.221 A 
ATOM     50  N   UNL     1       5.939   7.573 -16.824  0.00  0.00    -0.201 NA
ATOM     51  C   UNL     1       6.005   7.101 -15.567  0.00  0.00    +0.197 A 
ENDBRANCH  46  47
ENDBRANCH  35  46
ENDBRANCH  32  33
ENDBRANCH  31  32
ENDBRANCH   4  31
TORSDOF 12
ENDMDL
MODEL 8
REMARK VINA RESULT:      -7.9      4.086      5.498
REMARK  Name = 
REMARK  12 active torsions:
REMARK  status: ('A' for Active; 'I' for Inactive)
REMARK    1  A    between atoms: C_2  and  C_3
REMARK    2  A    between atoms: C_3  and  C_4
REMARK    3  A    between atoms: C_3  and  N_7
REMARK    4  A    between atoms: N_10  and  C_11
REMARK    5  A    between atoms: C_14  and  N_15
REMARK    6  A    between atoms: N_18  and  C_19
REMARK    7  A    between atoms: C_22  and  O_23
REMARK    8  A    between atoms: O_23  and  C_24
REMARK    9  A    between atoms: C_24  and  C_25
REMARK   10  A    between atoms: C_28  and  C_29
REMARK   11  A    between atoms: C_28  and  C_35
REMARK   12  A    between atoms: C_29  and  N_30
REMARK                            x       y       z     vdW  Elec       q    Type
REMARK                         _______ _______ _______ _____ _____    ______ ____
ROOT
ATOM      1  C   UNL     1      -0.435   5.311  -2.947  0.00  0.00    +0.048 A 
ATOM      2  C   UNL     1       0.419   5.127  -1.877  0.00  0.00    +0.018 A 
ATOM      3  C   UNL     1       0.357   5.872  -0.717  0.00  0.00    +0.038 A 
ATOM      4  C   UNL     1      -0.519   6.940  -0.703  0.00  0.00    +0.139 A 
ATOM      5  C   UNL     1      -1.518   7.053  -1.656  0.00  0.00    +0.038 A 
ATOM      6  C   UNL     1      -1.529   6.128  -2.687  0.00  0.00    +0.018 A 
ENDROOT
BRANCH   1  10
ATOM      7  N   UNL     1       1.370   7.180  -5.112  0.00  0.00    -0.304 N 
ATOM      8  C   UNL     1       1.839   6.389  -3.965  0.00  0.00    +0.112 C 
ATOM      9  C   UNL     1       1.443   4.980  -4.422  0.00  0.00    +0.112 C 
ATOM     10  N   UNL     1      -0.019   5.023  -4.291  0.00  0.00    -0.304 N 
ATOM     11  C   UNL     1      -0.645   5.839  -5.334  0.00  0.00    +0.112 C 
ATOM     12  C   UNL     1      -0.094   7.247  -5.131  0.00  0.00    +0.112 C 
BRANCH   7  16
ATOM     13  C   UNL     1       3.397   6.685  -8.788  0.00  0.00    +0.070 A 
ATOM     14  C   UNL     1       3.960   6.261  -7.606  0.00  0.00    +0.019 A 
ATOM     15  C   UNL     1       3.288   6.327  -6.408  0.00  0.00    +0.016 A 
ATOM     16  C   UNL     1       1.981   6.795  -6.354  0.00  0.00    +0.048 A 
ATOM     17  C   UNL     1       1.409   7.100  -7.583  0.00  0.00    +0.016 A 
ATOM     18  C   UNL     1       2.167   7.272  -8.735  0.00  0.00    +0.019 A 
BRANCH  13  22
ATOM     19  N   UNL     1       5.240   6.206 -11.740  0.00  0.00    -0.200 N 
ATOM     20  C   UNL     1       4.870   6.948 -10.689  0.00  0.00    +0.352 A 
ATOM     21  O   UNL     1       4.813   8.194 -10.727  0.00  0.00    -0.244 OA
ATOM     22  N   UNL     1       3.928   6.222 -10.035  0.00  0.00    -0.240 N 
ATOM     23  C   UNL     1       4.140   4.946 -10.400  0.00  0.00    +0.207 A 
ATOM     24  N   UNL     1       5.164   4.951 -11.288  0.00  0.00    -0.144 NA
BRANCH  19  25
ATOM     25  C   UNL     1       6.594   6.525 -12.489  0.00  0.00    +0.140 C 
BRANCH  25  26
ATOM     26  C   UNL     1       6.156   5.529 -13.860  0.00  0.00    +0.174 C 
ATOM     27  O   UNL     1       5.019   6.486 -14.246  0.00  0.00    -0.221 OA
ATOM     28  C   UNL     1       7.218   6.340 -14.856  0.00  0.00    +0.038 C 
ENDBRANCH  25  26
BRANCH  25  30
ATOM     29  C   UNL     1       8.220   5.479 -11.399  0.00  0.00    +0.002 C 
ATOM     30  C   UNL     1       7.354   5.262 -11.747  0.00  0.00    +0.027 C 
ENDBRANCH  25  30
ENDBRANCH  19  25
ENDBRANCH  13  22
ENDBRANCH   7  16
ENDBRANCH   1  10
BRANCH   4  31
ATOM     31  O   UNL     1      -0.775   7.583   0.509  0.00  0.00    -0.475 OA
BRANCH  31  32
ATOM     32  C   UNL     1      -0.142   7.081   1.684  0.00  0.00    +0.208 C 
BRANCH  32  33
ATOM     33  C   UNL     1       0.380   8.520   2.321  0.00  0.00    +0.076 C 
ATOM     34  C   UNL     1       1.961   8.165   1.979  0.00  0.00    +0.040 C 
ATOM     35  C   UNL     1       2.361   9.523   1.493  0.00  0.00    +0.136 C 
ATOM     36  O   UNL     1       1.225  10.223   1.152  0.00  0.00    -0.352 OA
ATOM     37  C   UNL     1       0.224   9.285   0.861  0.00  0.00    +0.146 C 
BRANCH  35  38
ATOM     38  C   UNL     1       3.156  10.180   2.573  0.00  0.00    +0.032 A 
ATOM     39  C   UNL     1       4.496   9.834   2.719  0.00  0.00    +0.141 A 
ATOM     40  F   UNL     1       4.734   8.491   2.730  0.00  0.00    -0.204 F 
ATOM     41  C   UNL     1       5.433  10.750   3.153  0.00  0.00    +0.059 A 
ATOM     42  C   UNL     1       5.005  12.026   3.493  0.00  0.00    +0.142 A 
ATOM     43  F   UNL     1       5.937  12.965   3.750  0.00  0.00    -0.204 F 
ATOM     44  C   UNL     1       3.641  12.274   3.586  0.00  0.00    +0.030 A 
ATOM     45  C   UNL     1       2.705  11.373   3.094  0.00  0.00    +0.003 A 
ENDBRANCH  35  38
BRANCH  35  46
ATOM     46  C   UNL     1       3.251   9.508   0.274  0.00  0.00    +0.160 C 
BRANCH  46  47
ATOM     47  N   UNL     1       3.298   8.187  -0.348  0.00  0.00    -0.227 N 
ATOM     48  N   UNL     1       3.616   7.088   0.335  0.00  0.00    -0.145 NA
ATOM     49  C   UNL     1       4.392   6.282  -0.403  0.00  0.00    +0.221 A 
ATOM     50  N   UNL     1       4.513   6.828  -1.619  0.00  0.00    -0.201 NA
ATOM     51  C   UNL     1       3.915   8.029  -1.544  0.00  0.00    +0.197 A 
ENDBRANCH  46  47
ENDBRANCH  35  46
ENDBRANCH  32  33
ENDBRANCH  31  32
ENDBRANCH   4  31
TORSDOF 12
ENDMDL
MODEL 9
REMARK VINA RESULT:      -7.6      4.277      6.862
REMARK  Name = 
REMARK  12 active torsions:
REMARK  status: ('A' for Active; 'I' for Inactive)
REMARK    1  A    between atoms: C_2  and  C_3
REMARK    2  A    between atoms: C_3  and  C_4
REMARK    3  A    between atoms: C_3  and  N_7
REMARK    4  A    between atoms: N_10  and  C_11
REMARK    5  A    between atoms: C_14  and  N_15
REMARK    6  A    between atoms: N_18  and  C_19
REMARK    7  A    between atoms: C_22  and  O_23
REMARK    8  A    between atoms: O_23  and  C_24
REMARK    9  A    between atoms: C_24  and  C_25
REMARK   10  A    between atoms: C_28  and  C_29
REMARK   11  A    between atoms: C_28  and  C_35
REMARK   12  A    between atoms: C_29  and  N_30
REMARK                            x       y       z     vdW  Elec       q    Type
REMARK                         _______ _______ _______ _____ _____    ______ ____
ROOT
ATOM      1  C   UNL     1       3.894   7.304  -0.560  0.00  0.00    +0.048 A 
ATOM      2  C   UNL     1       4.426   6.991   0.676  0.00  0.00    +0.018 A 
ATOM      3  C   UNL     1       4.273   7.787   1.794  0.00  0.00    +0.038 A 
ATOM      4  C   UNL     1       3.676   9.018   1.611  0.00  0.00    +0.139 A 
ATOM      5  C   UNL     1       2.965   9.299   0.455  0.00  0.00    +0.038 A 
ATOM      6  C   UNL     1       2.979   8.351  -0.554  0.00  0.00    +0.018 A 
ENDROOT
BRANCH   1  10
ATOM      7  N   UNL     1       2.521   6.219  -3.455  0.00  0.00    -0.304 N 
ATOM      8  C   UNL     1       2.654   7.596  -2.957  0.00  0.00    +0.112 C 
ATOM      9  C   UNL     1       4.181   7.727  -2.915  0.00  0.00    +0.112 C 
ATOM     10  N   UNL     1       4.524   6.869  -1.775  0.00  0.00    -0.304 N 
ATOM     11  C   UNL     1       4.377   5.446  -2.088  0.00  0.00    +0.112 C 
ATOM     12  C   UNL     1       2.900   5.255  -2.418  0.00  0.00    +0.112 C 
BRANCH   7  16
ATOM     13  C   UNL     1       3.717   5.633  -7.467  0.00  0.00    +0.070 A 
ATOM     14  C   UNL     1       3.778   6.879  -6.884  0.00  0.00    +0.019 A 
ATOM     15  C   UNL     1       3.480   7.083  -5.557  0.00  0.00    +0.016 A 
ATOM     16  C   UNL     1       3.142   6.015  -4.734  0.00  0.00    +0.048 A 
ATOM     17  C   UNL     1       3.210   4.763  -5.331  0.00  0.00    +0.016 A 
ATOM     18  C   UNL     1       3.257   4.596  -6.710  0.00  0.00    +0.019 A 
BRANCH  13  22
ATOM     19  N   UNL     1       4.980   5.686 -10.744  0.00  0.00    -0.200 N 
ATOM     20  C   UNL     1       4.076   6.043  -9.824  0.00  0.00    +0.352 A 
ATOM     21  O   UNL     1       2.880   6.264 -10.101  0.00  0.00    -0.244 OA
ATOM     22  N   UNL     1       4.423   5.385  -8.688  0.00  0.00    -0.240 N 
ATOM     23  C   UNL     1       5.729   5.097  -8.824  0.00  0.00    +0.207 A 
ATOM     24  N   UNL     1       6.110   5.546 -10.045  0.00  0.00    -0.144 NA
BRANCH  19  25
ATOM     25  C   UNL     1       5.153   6.553 -12.053  0.00  0.00    +0.140 C 
BRANCH  25  26
ATOM     26  C   UNL     1       6.072   5.297 -12.853  0.00  0.00    +0.174 C 
ATOM     27  O   UNL     1       4.789   4.614 -13.346  0.00  0.00    -0.221 OA
ATOM     28  C   UNL     1       6.172   6.191 -14.256  0.00  0.00    +0.038 C 
ENDBRANCH  25  26
BRANCH  25  30
ATOM     29  C   UNL     1       6.455   8.201 -11.333  0.00  0.00    +0.002 C 
ATOM     30  C   UNL     1       6.525   7.254 -11.461  0.00  0.00    +0.027 C 
ENDBRANCH  25  30
ENDBRANCH  19  25
ENDBRANCH  13  22
ENDBRANCH   7  16
ENDBRANCH   1  10
BRANCH   4  31
ATOM     31  O   UNL     1       3.306   9.759   2.734  0.00  0.00    -0.475 OA
BRANCH  31  32
ATOM     32  C   UNL     1       4.311  10.525   3.396  0.00  0.00    +0.208 C 
BRANCH  32  33
ATOM     33  C   UNL     1       5.302  10.811   2.098  0.00  0.00    +0.076 C 
ATOM     34  C   UNL     1       4.641  12.308   1.848  0.00  0.00    +0.040 C 
ATOM     35  C   UNL     1       5.916  13.034   1.554  0.00  0.00    +0.136 C 
ATOM     36  O   UNL     1       6.969  12.293   2.042  0.00  0.00    -0.352 OA
ATOM     37  C   UNL     1       6.470  11.475   3.066  0.00  0.00    +0.146 C 
BRANCH  35  38
ATOM     38  C   UNL     1       5.986  13.257   0.079  0.00  0.00    +0.032 A 
ATOM     39  C   UNL     1       4.801  13.273  -0.650  0.00  0.00    +0.141 A 
ATOM     40  F   UNL     1       3.961  12.232  -0.386  0.00  0.00    -0.204 F 
ATOM     41  C   UNL     1       4.655  14.070  -1.768  0.00  0.00    +0.059 A 
ATOM     42  C   UNL     1       5.739  14.829  -2.188  0.00  0.00    +0.142 A 
ATOM     43  F   UNL     1       5.545  15.731  -3.170  0.00  0.00    -0.204 F 
ATOM     44  C   UNL     1       6.981  14.606  -1.606  0.00  0.00    +0.030 A 
ATOM     45  C   UNL     1       7.113  13.850  -0.447  0.00  0.00    +0.003 A 
ENDBRANCH  35  38
BRANCH  35  46
ATOM     46  C   UNL     1       6.011  14.402   2.184  0.00  0.00    +0.160 C 
BRANCH  46  47
ATOM     47  N   UNL     1       4.738  15.117   2.126  0.00  0.00    -0.227 N 
ATOM     48  N   UNL     1       4.556  16.186   1.352  0.00  0.00    -0.145 NA
ATOM     49  C   UNL     1       3.818  17.107   1.987  0.00  0.00    +0.221 A 
ATOM     50  N   UNL     1       3.443  16.594   3.164  0.00  0.00    -0.201 NA
ATOM     51  C   UNL     1       4.083  15.416   3.273  0.00  0.00    +0.197 A 
ENDBRANCH  46  47
ENDBRANCH  35  46
ENDBRANCH  32  33
ENDBRANCH  31  32
ENDBRANCH   4  31
TORSDOF 12
ENDMDL
