MODEL 1
REMARK VINA RESULT:      -3.6      0.000      0.000
REMARK  Name = 
REMARK  2 active torsions:
REMARK  status: ('A' for Active; 'I' for Inactive)
REMARK    1  A    between atoms: N_2  and  C_5
REMARK    2  A    between atoms: C_5  and  C_6
REMARK                            x       y       z     vdW  Elec       q    Type
REMARK                         _______ _______ _______ _____ _____    ______ ____
ROOT
ATOM      1  C   UNL     1       6.445   7.653 -11.295  0.00  0.00    +0.172 C 
ATOM      2  N   UNL     1       5.812   6.474 -10.795  0.00  0.00    +0.319 N 
ATOM      3  C   UNL     1       4.486   6.817 -10.285  0.00  0.00    +0.172 C 
ATOM      4  C   UNL     1       6.560   5.952  -9.662  0.00  0.00    +0.172 C 
ENDROOT
BRANCH   2   5
ATOM      5  C   UNL     1       5.601   5.425 -11.739  0.00  0.00    +0.225 C 
BRANCH   5   6
ATOM      6  C   UNL     1       6.642   5.308 -12.781  0.00  0.00    +0.420 C 
ATOM      7  O   UNL     1       7.807   4.573 -12.539  0.00  0.00    -0.239 OA
ATOM      8  O   UNL     1       6.213   5.224 -13.972  0.00  0.00    -0.239 OA
ENDBRANCH   5   6
ENDBRANCH   2   5
TORSDOF 2
ENDMDL
MODEL 2
REMARK VINA RESULT:      -3.5     11.071     11.955
REMARK  Name = 
REMARK  2 active torsions:
REMARK  status: ('A' for Active; 'I' for Inactive)
REMARK    1  A    between atoms: N_2  and  C_5
REMARK    2  A    between atoms: C_5  and  C_6
REMARK                            x       y       z     vdW  Elec       q    Type
REMARK                         _______ _______ _______ _____ _____    ______ ____
ROOT
ATOM      1  C   UNL     1      -1.977   7.493  -4.842  0.00  0.00    +0.172 C 
ATOM      2  N   UNL     1      -1.934   6.072  -4.972  0.00  0.00    +0.319 N 
ATOM      3  C   UNL     1      -0.596   5.595  -4.625  0.00  0.00    +0.172 C 
ATOM      4  C   UNL     1      -2.151   5.694  -6.360  0.00  0.00    +0.172 C 
ENDROOT
BRANCH   2   5
ATOM      5  C   UNL     1      -2.831   5.337  -4.141  0.00  0.00    +0.225 C 
BRANCH   5   6
ATOM      6  C   UNL     1      -2.897   5.797  -2.740  0.00  0.00    +0.420 C 
ATOM      7  O   UNL     1      -3.923   6.649  -2.321  0.00  0.00    -0.239 OA
ATOM      8  O   UNL     1      -2.544   4.943  -1.869  0.00  0.00    -0.239 OA
ENDBRANCH   5   6
ENDBRANCH   2   5
TORSDOF 2
ENDMDL
MODEL 3
REMARK VINA RESULT:      -3.5      6.743      7.487
REMARK  Name = 
REMARK  2 active torsions:
REMARK  status: ('A' for Active; 'I' for Inactive)
REMARK    1  A    between atoms: N_2  and  C_5
REMARK    2  A    between atoms: C_5  and  C_6
REMARK                            x       y       z     vdW  Elec       q    Type
REMARK                         _______ _______ _______ _____ _____    ______ ____
ROOT
ATOM      1  C   UNL     1      -0.050   6.875  -5.392  0.00  0.00    +0.172 C 
ATOM      2  N   UNL     1       0.348   5.855  -6.308  0.00  0.00    +0.319 N 
ATOM      3  C   UNL     1      -0.829   5.356  -7.018  0.00  0.00    +0.172 C 
ATOM      4  C   UNL     1       0.893   4.719  -5.581  0.00  0.00    +0.172 C 
ENDROOT
BRANCH   2   5
ATOM      5  C   UNL     1       1.271   6.247  -7.323  0.00  0.00    +0.225 C 
BRANCH   5   6
ATOM      6  C   UNL     1       2.051   7.463  -7.018  0.00  0.00    +0.420 C 
ATOM      7  O   UNL     1       3.238   7.378  -6.284  0.00  0.00    -0.239 OA
ATOM      8  O   UNL     1       2.068   8.343  -7.932  0.00  0.00    -0.239 OA
ENDBRANCH   5   6
ENDBRANCH   2   5
TORSDOF 2
ENDMDL
MODEL 4
REMARK VINA RESULT:      -3.5     10.587     11.514
REMARK  Name = 
REMARK  2 active torsions:
REMARK  status: ('A' for Active; 'I' for Inactive)
REMARK    1  A    between atoms: N_2  and  C_5
REMARK    2  A    between atoms: C_5  and  C_6
REMARK                            x       y       z     vdW  Elec       q    Type
REMARK                         _______ _______ _______ _____ _____    ______ ____
ROOT
ATOM      1  C   UNL     1      -2.367   6.447  -5.461  0.00  0.00    +0.172 C 
ATOM      2  N   UNL     1      -1.631   7.108  -4.431  0.00  0.00    +0.319 N 
ATOM      3  C   UNL     1      -1.852   8.550  -4.527  0.00  0.00    +0.172 C 
ATOM      4  C   UNL     1      -0.205   6.902  -4.629  0.00  0.00    +0.172 C 
ENDROOT
BRANCH   2   5
ATOM      5  C   UNL     1      -1.972   6.755  -3.091  0.00  0.00    +0.225 C 
BRANCH   5   6
ATOM      6  C   UNL     1      -1.770   5.332  -2.752  0.00  0.00    +0.420 C 
ATOM      7  O   UNL     1      -0.760   4.951  -1.865  0.00  0.00    -0.239 OA
ATOM      8  O   UNL     1      -2.829   4.638  -2.661  0.00  0.00    -0.239 OA
ENDBRANCH   5   6
ENDBRANCH   2   5
TORSDOF 2
ENDMDL
MODEL 5
REMARK VINA RESULT:      -3.4      5.720      6.353
REMARK  Name = 
REMARK  2 active torsions:
REMARK  status: ('A' for Active; 'I' for Inactive)
REMARK    1  A    between atoms: N_2  and  C_5
REMARK    2  A    between atoms: C_5  and  C_6
REMARK                            x       y       z     vdW  Elec       q    Type
REMARK                         _______ _______ _______ _____ _____    ______ ____
ROOT
ATOM      1  C   UNL     1       1.576   4.663  -6.690  0.00  0.00    +0.172 C 
ATOM      2  N   UNL     1       2.024   4.980  -8.008  0.00  0.00    +0.319 N 
ATOM      3  C   UNL     1       0.869   5.277  -8.854  0.00  0.00    +0.172 C 
ATOM      4  C   UNL     1       2.675   3.823  -8.603  0.00  0.00    +0.172 C 
ENDROOT
BRANCH   2   5
ATOM      5  C   UNL     1       2.886   6.112  -8.125  0.00  0.00    +0.225 C 
BRANCH   5   6
ATOM      6  C   UNL     1       2.556   7.238  -7.229  0.00  0.00    +0.420 C 
ATOM      7  O   UNL     1       3.321   7.482  -6.085  0.00  0.00    -0.239 OA
ATOM      8  O   UNL     1       2.136   8.288  -7.806  0.00  0.00    -0.239 OA
ENDBRANCH   5   6
ENDBRANCH   2   5
TORSDOF 2
ENDMDL
MODEL 6
REMARK VINA RESULT:      -3.2      5.000      5.883
REMARK  Name = 
REMARK  2 active torsions:
REMARK  status: ('A' for Active; 'I' for Inactive)
REMARK    1  A    between atoms: N_2  and  C_5
REMARK    2  A    between atoms: C_5  and  C_6
REMARK                            x       y       z     vdW  Elec       q    Type
REMARK                         _______ _______ _______ _____ _____    ______ ____
ROOT
ATOM      1  C   UNL     1       1.928   5.561 -10.123  0.00  0.00    +0.172 C 
ATOM      2  N   UNL     1       2.934   5.251  -9.159  0.00  0.00    +0.319 N 
ATOM      3  C   UNL     1       4.227   5.128  -9.832  0.00  0.00    +0.172 C 
ATOM      4  C   UNL     1       2.665   3.953  -8.560  0.00  0.00    +0.172 C 
ENDROOT
BRANCH   2   5
ATOM      5  C   UNL     1       3.131   6.212  -8.123  0.00  0.00    +0.225 C 
BRANCH   5   6
ATOM      6  C   UNL     1       1.958   7.062  -7.834  0.00  0.00    +0.420 C 
ATOM      7  O   UNL     1       1.026   6.680  -6.866  0.00  0.00    -0.239 OA
ATOM      8  O   UNL     1       2.166   8.313  -7.890  0.00  0.00    -0.239 OA
ENDBRANCH   5   6
ENDBRANCH   2   5
TORSDOF 2
ENDMDL
MODEL 7
REMARK VINA RESULT:      -3.2      1.135      1.980
REMARK  Name = 
REMARK  2 active torsions:
REMARK  status: ('A' for Active; 'I' for Inactive)
REMARK    1  A    between atoms: N_2  and  C_5
REMARK    2  A    between atoms: C_5  and  C_6
REMARK                            x       y       z     vdW  Elec       q    Type
REMARK                         _______ _______ _______ _____ _____    ______ ____
ROOT
ATOM      1  C   UNL     1       4.989   6.101  -9.893  0.00  0.00    +0.172 C 
ATOM      2  N   UNL     1       5.766   6.163 -11.089  0.00  0.00    +0.319 N 
ATOM      3  C   UNL     1       6.181   7.546 -11.324  0.00  0.00    +0.172 C 
ATOM      4  C   UNL     1       4.950   5.785 -12.232  0.00  0.00    +0.172 C 
ENDROOT
BRANCH   2   5
ATOM      5  C   UNL     1       6.968   5.395 -11.098  0.00  0.00    +0.225 C 
BRANCH   5   6
ATOM      6  C   UNL     1       7.795   5.549 -12.312  0.00  0.00    +0.420 C 
ATOM      7  O   UNL     1       9.085   6.080 -12.228  0.00  0.00    -0.239 OA
ATOM      8  O   UNL     1       7.666   4.631 -13.179  0.00  0.00    -0.239 OA
ENDBRANCH   5   6
ENDBRANCH   2   5
TORSDOF 2
ENDMDL
MODEL 8
REMARK VINA RESULT:      -3.1      5.895      6.617
REMARK  Name = 
REMARK  2 active torsions:
REMARK  status: ('A' for Active; 'I' for Inactive)
REMARK    1  A    between atoms: N_2  and  C_5
REMARK    2  A    between atoms: C_5  and  C_6
REMARK                            x       y       z     vdW  Elec       q    Type
REMARK                         _______ _______ _______ _____ _____    ______ ____
ROOT
ATOM      1  C   UNL     1       4.264   5.770  -6.808  0.00  0.00    +0.172 C 
ATOM      2  N   UNL     1       3.433   6.203  -5.730  0.00  0.00    +0.319 N 
ATOM      3  C   UNL     1       4.167   7.166  -4.910  0.00  0.00    +0.172 C 
ATOM      4  C   UNL     1       3.125   5.080  -4.858  0.00  0.00    +0.172 C 
ENDROOT
BRANCH   2   5
ATOM      5  C   UNL     1       2.219   6.857  -6.096  0.00  0.00    +0.225 C 
BRANCH   5   6
ATOM      6  C   UNL     1       2.078   7.145  -7.537  0.00  0.00    +0.420 C 
ATOM      7  O   UNL     1       1.182   6.413  -8.322  0.00  0.00    -0.239 OA
ATOM      8  O   UNL     1       2.170   8.369  -7.860  0.00  0.00    -0.239 OA
ENDBRANCH   5   6
ENDBRANCH   2   5
TORSDOF 2
ENDMDL
MODEL 9
REMARK VINA RESULT:      -3.1      4.983      6.032
REMARK  Name = 
REMARK  2 active torsions:
REMARK  status: ('A' for Active; 'I' for Inactive)
REMARK    1  A    between atoms: N_2  and  C_5
REMARK    2  A    between atoms: C_5  and  C_6
REMARK                            x       y       z     vdW  Elec       q    Type
REMARK                         _______ _______ _______ _____ _____    ______ ____
ROOT
ATOM      1  C   UNL     1       2.336   6.190 -11.010  0.00  0.00    +0.172 C 
ATOM      2  N   UNL     1       1.103   6.060 -10.303  0.00  0.00    +0.319 N 
ATOM      3  C   UNL     1       0.582   4.706 -10.484  0.00  0.00    +0.172 C 
ATOM      4  C   UNL     1       0.108   6.956 -10.872  0.00  0.00    +0.172 C 
ENDROOT
BRANCH   2   5
ATOM      5  C   UNL     1       1.161   6.263  -8.892  0.00  0.00    +0.225 C 
BRANCH   5   6
ATOM      6  C   UNL     1       2.309   7.069  -8.427  0.00  0.00    +0.420 C 
ATOM      7  O   UNL     1       2.118   8.372  -7.961  0.00  0.00    -0.239 OA
ATOM      8  O   UNL     1       3.213   6.424  -7.812  0.00  0.00    -0.239 OA
ENDBRANCH   5   6
ENDBRANCH   2   5
TORSDOF 2
ENDMDL
