MODEL 1
REMARK VINA RESULT:      -5.8      0.000      0.000
REMARK  Name = 
REMARK  2 active torsions:
REMARK  status: ('A' for Active; 'I' for Inactive)
REMARK    1  A    between atoms: C_2  and  C_5
REMARK    2  A    between atoms: C_5  and  C_6
REMARK                            x       y       z     vdW  Elec       q    Type
REMARK                         _______ _______ _______ _____ _____    ______ ____
ROOT
ATOM      1  C   UNL     1       6.507   7.068 -11.352  0.00  0.00    -0.021 A 
ATOM      2  C   UNL     1       5.267   6.985 -10.733  0.00  0.00    -0.004 A 
ATOM      3  C   UNL     1       5.080   6.098  -9.678  0.00  0.00    -0.000 A 
ATOM      4  C   UNL     1       6.168   5.431  -9.125  0.00  0.00    -0.000 A 
ATOM      5  C   UNL     1       7.403   6.014  -9.378  0.00  0.00    -0.000 A 
ATOM      6  C   UNL     1       7.591   6.730 -10.553  0.00  0.00    -0.004 A 
ENDROOT
BRANCH   1   7
ATOM      7  C   UNL     1       6.608   7.195 -12.831  0.00  0.00    +0.044 C 
BRANCH   7   9
ATOM      8  C   UNL     1       5.120   5.277 -13.448  0.00  0.00    +0.019 C 
ATOM      9  C   UNL     1       6.501   5.869 -13.523  0.00  0.00    +0.081 C 
ATOM     10  N   UNL     1       7.451   4.890 -13.045  0.00  0.00    -0.134 NA
ATOM     11  C   UNL     1       6.862   6.125 -14.984  0.00  0.00    +0.019 C 
ENDBRANCH   7   9
ENDBRANCH   1   7
TORSDOF 2
ENDMDL
MODEL 2
REMARK VINA RESULT:      -5.5      2.791      4.380
REMARK  Name = 
REMARK  2 active torsions:
REMARK  status: ('A' for Active; 'I' for Inactive)
REMARK    1  A    between atoms: C_2  and  C_5
REMARK    2  A    between atoms: C_5  and  C_6
REMARK                            x       y       z     vdW  Elec       q    Type
REMARK                         _______ _______ _______ _____ _____    ______ ____
ROOT
ATOM      1  C   UNL     1       5.077   6.132 -10.076  0.00  0.00    -0.021 A 
ATOM      2  C   UNL     1       6.108   5.686  -9.261  0.00  0.00    -0.004 A 
ATOM      3  C   UNL     1       7.428   5.940  -9.617  0.00  0.00    -0.000 A 
ATOM      4  C   UNL     1       7.714   6.788 -10.682  0.00  0.00    -0.000 A 
ATOM      5  C   UNL     1       6.684   7.649 -11.038  0.00  0.00    -0.000 A 
ATOM      6  C   UNL     1       5.367   7.256 -10.838  0.00  0.00    -0.004 A 
ENDROOT
BRANCH   1   7
ATOM      7  C   UNL     1       3.891   5.272 -10.336  0.00  0.00    +0.044 C 
BRANCH   7   9
ATOM      8  C   UNL     1       2.734   6.781  -8.706  0.00  0.00    +0.019 C 
ATOM      9  C   UNL     1       2.858   5.387  -9.253  0.00  0.00    +0.081 C 
ATOM     10  N   UNL     1       3.072   4.474  -8.153  0.00  0.00    -0.134 NA
ATOM     11  C   UNL     1       1.533   4.974  -9.889  0.00  0.00    +0.019 C 
ENDBRANCH   7   9
ENDBRANCH   1   7
TORSDOF 2
ENDMDL
MODEL 3
REMARK VINA RESULT:      -5.5      6.547      8.439
REMARK  Name = 
REMARK  2 active torsions:
REMARK  status: ('A' for Active; 'I' for Inactive)
REMARK    1  A    between atoms: C_2  and  C_5
REMARK    2  A    between atoms: C_5  and  C_6
REMARK                            x       y       z     vdW  Elec       q    Type
REMARK                         _______ _______ _______ _____ _____    ______ ____
ROOT
ATOM      1  C   UNL     1      -0.039   5.759  -6.581  0.00  0.00    -0.021 A 
ATOM      2  C   UNL     1       0.007   6.549  -5.441  0.00  0.00    -0.004 A 
ATOM      3  C   UNL     1      -1.153   7.162  -4.978  0.00  0.00    -0.000 A 
ATOM      4  C   UNL     1      -2.384   6.843  -5.541  0.00  0.00    -0.000 A 
ATOM      5  C   UNL     1      -2.420   5.634  -6.225  0.00  0.00    -0.000 A 
ATOM      6  C   UNL     1      -1.267   5.164  -6.840  0.00  0.00    -0.004 A 
ENDROOT
BRANCH   1   7
ATOM      7  C   UNL     1       1.050   5.824  -7.593  0.00  0.00    +0.044 C 
BRANCH   7   9
ATOM      8  C   UNL     1       2.521   4.046  -8.567  0.00  0.00    +0.019 C 
ATOM      9  C   UNL     1       2.126   4.811  -7.334  0.00  0.00    +0.081 C 
ATOM     10  N   UNL     1       1.792   3.868  -6.291  0.00  0.00    -0.134 NA
ATOM     11  C   UNL     1       3.330   5.596  -6.821  0.00  0.00    +0.019 C 
ENDBRANCH   7   9
ENDBRANCH   1   7
TORSDOF 2
ENDMDL
MODEL 4
REMARK VINA RESULT:      -5.4      9.233     11.482
REMARK  Name = 
REMARK  2 active torsions:
REMARK  status: ('A' for Active; 'I' for Inactive)
REMARK    1  A    between atoms: C_2  and  C_5
REMARK    2  A    between atoms: C_5  and  C_6
REMARK                            x       y       z     vdW  Elec       q    Type
REMARK                         _______ _______ _______ _____ _____    ______ ____
ROOT
ATOM      1  C   UNL     1      -1.184   5.847  -4.674  0.00  0.00    -0.021 A 
ATOM      2  C   UNL     1      -2.106   5.618  -5.687  0.00  0.00    -0.004 A 
ATOM      3  C   UNL     1      -1.662   5.390  -6.985  0.00  0.00    -0.000 A 
ATOM      4  C   UNL     1      -0.307   5.211  -7.239  0.00  0.00    -0.000 A 
ATOM      5  C   UNL     1       0.454   4.848  -6.134  0.00  0.00    -0.000 A 
ATOM      6  C   UNL     1       0.066   5.275  -4.871  0.00  0.00    -0.004 A 
ENDROOT
BRANCH   1   7
ATOM      7  C   UNL     1      -1.437   6.886  -3.640  0.00  0.00    +0.044 C 
BRANCH   7   9
ATOM      8  C   UNL     1      -1.674   7.006  -1.150  0.00  0.00    +0.019 C 
ATOM      9  C   UNL     1      -2.101   6.323  -2.419  0.00  0.00    +0.081 C 
ATOM     10  N   UNL     1      -1.912   4.898  -2.266  0.00  0.00    -0.134 NA
ATOM     11  C   UNL     1      -3.601   6.527  -2.622  0.00  0.00    +0.019 C 
ENDBRANCH   7   9
ENDBRANCH   1   7
TORSDOF 2
ENDMDL
MODEL 5
REMARK VINA RESULT:      -5.4      2.574      4.388
REMARK  Name = 
REMARK  2 active torsions:
REMARK  status: ('A' for Active; 'I' for Inactive)
REMARK    1  A    between atoms: C_2  and  C_5
REMARK    2  A    between atoms: C_5  and  C_6
REMARK                            x       y       z     vdW  Elec       q    Type
REMARK                         _______ _______ _______ _____ _____    ______ ____
ROOT
ATOM      1  C   UNL     1       4.879   6.364  -9.819  0.00  0.00    -0.021 A 
ATOM      2  C   UNL     1       5.101   7.206 -10.900  0.00  0.00    -0.004 A 
ATOM      3  C   UNL     1       6.384   7.680 -11.153  0.00  0.00    -0.000 A 
ATOM      4  C   UNL     1       7.468   7.174 -10.444  0.00  0.00    -0.000 A 
ATOM      5  C   UNL     1       7.251   5.940  -9.844  0.00  0.00    -0.000 A 
ATOM      6  C   UNL     1       5.971   5.600  -9.429  0.00  0.00    -0.004 A 
ENDROOT
BRANCH   1   7
ATOM      7  C   UNL     1       3.668   6.525  -8.969  0.00  0.00    +0.044 C 
BRANCH   7   9
ATOM      8  C   UNL     1       2.906   4.147  -8.786  0.00  0.00    +0.019 C 
ATOM      9  C   UNL     1       2.602   5.525  -9.304  0.00  0.00    +0.081 C 
ATOM     10  N   UNL     1       2.318   5.436 -10.718  0.00  0.00    -0.134 NA
ATOM     11  C   UNL     1       1.321   6.039  -8.650  0.00  0.00    +0.019 C 
ENDBRANCH   7   9
ENDBRANCH   1   7
TORSDOF 2
ENDMDL
MODEL 6
REMARK VINA RESULT:      -5.3      6.441      8.361
REMARK  Name = 
REMARK  2 active torsions:
REMARK  status: ('A' for Active; 'I' for Inactive)
REMARK    1  A    between atoms: C_2  and  C_5
REMARK    2  A    between atoms: C_5  and  C_6
REMARK                            x       y       z     vdW  Elec       q    Type
REMARK                         _______ _______ _______ _____ _____    ______ ____
ROOT
ATOM      1  C   UNL     1       0.033   5.653  -6.358  0.00  0.00    -0.021 A 
ATOM      2  C   UNL     1      -1.188   5.353  -6.946  0.00  0.00    -0.004 A 
ATOM      3  C   UNL     1      -2.369   5.686  -6.291  0.00  0.00    -0.000 A 
ATOM      4  C   UNL     1      -2.336   6.475  -5.147  0.00  0.00    -0.000 A 
ATOM      5  C   UNL     1      -1.176   7.222  -4.984  0.00  0.00    -0.000 A 
ATOM      6  C   UNL     1       0.023   6.739  -5.492  0.00  0.00    -0.004 A 
ENDROOT
BRANCH   1   7
ATOM      7  C   UNL     1       1.160   4.684  -6.414  0.00  0.00    +0.044 C 
BRANCH   7   9
ATOM      8  C   UNL     1       3.480   5.594  -6.669  0.00  0.00    +0.019 C 
ATOM      9  C   UNL     1       2.236   5.118  -7.366  0.00  0.00    +0.081 C 
ATOM     10  N   UNL     1       1.805   6.138  -8.295  0.00  0.00    -0.134 NA
ATOM     11  C   UNL     1       2.569   3.892  -8.213  0.00  0.00    +0.019 C 
ENDBRANCH   7   9
ENDBRANCH   1   7
TORSDOF 2
ENDMDL
MODEL 7
REMARK VINA RESULT:      -5.3      1.304      2.446
REMARK  Name = 
REMARK  2 active torsions:
REMARK  status: ('A' for Active; 'I' for Inactive)
REMARK    1  A    between atoms: C_2  and  C_5
REMARK    2  A    between atoms: C_5  and  C_6
REMARK                            x       y       z     vdW  Elec       q    Type
REMARK                         _______ _______ _______ _____ _____    ______ ____
ROOT
ATOM      1  C   UNL     1       5.727   6.266 -10.307  0.00  0.00    -0.021 A 
ATOM      2  C   UNL     1       5.856   5.360  -9.263  0.00  0.00    -0.004 A 
ATOM      3  C   UNL     1       4.991   5.430  -8.177  0.00  0.00    -0.000 A 
ATOM      4  C   UNL     1       3.890   6.280  -8.214  0.00  0.00    -0.000 A 
ATOM      5  C   UNL     1       3.497   6.674  -9.486  0.00  0.00    -0.000 A 
ATOM      6  C   UNL     1       4.449   6.776 -10.493  0.00  0.00    -0.004 A 
ENDROOT
BRANCH   1   7
ATOM      7  C   UNL     1       6.930   6.865 -10.944  0.00  0.00    +0.044 C 
BRANCH   7   9
ATOM      8  C   UNL     1       6.737   7.170 -13.422  0.00  0.00    +0.019 C 
ATOM      9  C   UNL     1       7.203   6.285 -12.300  0.00  0.00    +0.081 C 
ATOM     10  N   UNL     1       6.642   4.966 -12.486  0.00  0.00    -0.134 NA
ATOM     11  C   UNL     1       8.718   6.113 -12.388  0.00  0.00    +0.019 C 
ENDBRANCH   7   9
ENDBRANCH   1   7
TORSDOF 2
ENDMDL
MODEL 8
REMARK VINA RESULT:      -5.2      2.024      3.671
REMARK  Name = 
REMARK  2 active torsions:
REMARK  status: ('A' for Active; 'I' for Inactive)
REMARK    1  A    between atoms: C_2  and  C_5
REMARK    2  A    between atoms: C_5  and  C_6
REMARK                            x       y       z     vdW  Elec       q    Type
REMARK                         _______ _______ _______ _____ _____    ______ ____
ROOT
ATOM      1  C   UNL     1       6.120   6.115 -11.282  0.00  0.00    -0.021 A 
ATOM      2  C   UNL     1       6.183   5.523 -12.536  0.00  0.00    -0.004 A 
ATOM      3  C   UNL     1       7.400   5.453 -13.206  0.00  0.00    -0.000 A 
ATOM      4  C   UNL     1       8.577   5.806 -12.556  0.00  0.00    -0.000 A 
ATOM      5  C   UNL     1       8.507   5.793 -11.168  0.00  0.00    -0.000 A 
ATOM      6  C   UNL     1       7.296   6.067 -10.545  0.00  0.00    -0.004 A 
ENDROOT
BRANCH   1   7
ATOM      7  C   UNL     1       4.981   7.000 -10.918  0.00  0.00    +0.044 C 
BRANCH   7   9
ATOM      8  C   UNL     1       3.314   6.937  -9.050  0.00  0.00    +0.019 C 
ATOM      9  C   UNL     1       3.860   6.244 -10.268  0.00  0.00    +0.081 C 
ATOM     10  N   UNL     1       4.210   4.888  -9.912  0.00  0.00    -0.134 NA
ATOM     11  C   UNL     1       2.761   6.132 -11.321  0.00  0.00    +0.019 C 
ENDBRANCH   7   9
ENDBRANCH   1   7
TORSDOF 2
ENDMDL
MODEL 9
REMARK VINA RESULT:      -5.1      1.747      2.782
REMARK  Name = 
REMARK  2 active torsions:
REMARK  status: ('A' for Active; 'I' for Inactive)
REMARK    1  A    between atoms: C_2  and  C_5
REMARK    2  A    between atoms: C_5  and  C_6
REMARK                            x       y       z     vdW  Elec       q    Type
REMARK                         _______ _______ _______ _____ _____    ______ ____
ROOT
ATOM      1  C   UNL     1       5.328   5.989  -9.897  0.00  0.00    -0.021 A 
ATOM      2  C   UNL     1       4.257   6.872  -9.920  0.00  0.00    -0.004 A 
ATOM      3  C   UNL     1       3.204   6.702  -9.027  0.00  0.00    -0.000 A 
ATOM      4  C   UNL     1       3.302   5.770  -8.000  0.00  0.00    -0.000 A 
ATOM      5  C   UNL     1       4.598   5.383  -7.682  0.00  0.00    -0.000 A 
ATOM      6  C   UNL     1       5.572   5.385  -8.671  0.00  0.00    -0.004 A 
ENDROOT
BRANCH   1   7
ATOM      7  C   UNL     1       5.938   5.505 -11.165  0.00  0.00    +0.044 C 
BRANCH   7   9
ATOM      8  C   UNL     1       7.704   7.176 -10.561  0.00  0.00    +0.019 C 
ATOM      9  C   UNL     1       7.013   6.425 -11.665  0.00  0.00    +0.081 C 
ATOM     10  N   UNL     1       6.546   7.374 -12.650  0.00  0.00    -0.134 NA
ATOM     11  C   UNL     1       8.026   5.538 -12.384  0.00  0.00    +0.019 C 
ENDBRANCH   7   9
ENDBRANCH   1   7
TORSDOF 2
ENDMDL
