MODEL 1
REMARK VINA RESULT:      -9.3      0.000      0.000
REMARK  Name = 
REMARK  5 active torsions:
REMARK  status: ('A' for Active; 'I' for Inactive)
REMARK    1  A    between atoms: C_2  and  O_3
REMARK    2  A    between atoms: C_2  and  C_16
REMARK    3  A    between atoms: O_3  and  C_4
REMARK    4  A    between atoms: C_16  and  C_18
REMARK    5  A    between atoms: C_16  and  C_24
REMARK                            x       y       z     vdW  Elec       q    Type
REMARK                         _______ _______ _______ _____ _____    ______ ____
ROOT
ATOM      1  O   UNL     1       3.203   6.432  -6.628  0.00  0.00    -0.247 OA
ATOM      2  C   UNL     1       2.730   6.382  -6.819  0.00  0.00    +0.353 C 
ENDROOT
BRANCH   2   3
ATOM      3  C   UNL     1       2.795   6.607  -8.250  0.00  0.00    +0.252 C 
ATOM      4  O   UNL     1       2.691   8.022  -8.266  0.00  0.00    -0.205 OA
BRANCH   3   5
ATOM      5  C   UNL     1       1.664   6.013  -8.965  0.00  0.00    +0.019 A 
ATOM      6  C   UNL     1       1.631   4.678  -9.246  0.00  0.00    -0.001 A 
ATOM      7  C   UNL     1       0.700   4.179 -10.147  0.00  0.00    -0.000 A 
ATOM      8  C   UNL     1      -0.116   5.043 -10.861  0.00  0.00    -0.000 A 
ATOM      9  C   UNL     1      -0.174   6.353 -10.436  0.00  0.00    -0.000 A 
ATOM     10  C   UNL     1       0.877   6.866  -9.719  0.00  0.00    -0.001 A 
ENDBRANCH   3   5
BRANCH   3  11
ATOM     11  C   UNL     1       4.069   6.297  -8.893  0.00  0.00    +0.019 A 
ATOM     12  C   UNL     1       4.258   6.999 -10.079  0.00  0.00    -0.001 A 
ATOM     13  C   UNL     1       5.451   7.008 -10.742  0.00  0.00    -0.000 A 
ATOM     14  C   UNL     1       6.528   6.425 -10.107  0.00  0.00    -0.000 A 
ATOM     15  C   UNL     1       6.254   5.469  -9.142  0.00  0.00    -0.000 A 
ATOM     16  C   UNL     1       5.027   5.428  -8.490  0.00  0.00    -0.001 A 
ENDBRANCH   3  11
ENDBRANCH   2   3
BRANCH   2  17
ATOM     17  O   UNL     1       2.080   7.045  -5.785  0.00  0.00    -0.450 OA
BRANCH  17  18
ATOM     18  C   UNL     1       0.824   6.523  -5.649  0.00  0.00    +0.180 C 
ATOM     19  C   UNL     1      -0.244   7.405  -5.214  0.00  0.00    +0.099 C 
ATOM     20  C   UNL     1      -1.776   6.789  -5.265  0.00  0.00    +0.062 C 
ATOM     21  N   UNL     1      -1.489   5.388  -4.488  0.00  0.00    +0.289 N 
ATOM     22  C   UNL     1      -0.650   5.727  -5.710  0.00  0.00    +0.062 C 
ATOM     23  C   UNL     1      -1.393   4.635  -6.637  0.00  0.00    +0.061 C 
ATOM     24  C   UNL     1      -0.434   5.690  -3.512  0.00  0.00    +0.108 C 
ATOM     25  C   UNL     1      -0.987   5.387  -2.145  0.00  0.00    +0.067 C 
ATOM     26  C   UNL     1      -2.294   6.134  -2.365  0.00  0.00    +0.067 C 
ATOM     27  C   UNL     1      -2.507   5.863  -3.845  0.00  0.00    +0.108 C 
ATOM     28  C   UNL     1      -1.820   6.142  -6.792  0.00  0.00    +0.061 C 
ATOM     29  C   UNL     1       0.786   5.006  -5.350  0.00  0.00    +0.099 C 
ENDBRANCH  17  18
ENDBRANCH   2  17
TORSDOF 5
ENDMDL
MODEL 2
REMARK VINA RESULT:      -9.1      2.406      6.139
REMARK  Name = 
REMARK  5 active torsions:
REMARK  status: ('A' for Active; 'I' for Inactive)
REMARK    1  A    between atoms: C_2  and  O_3
REMARK    2  A    between atoms: C_2  and  C_16
REMARK    3  A    between atoms: O_3  and  C_4
REMARK    4  A    between atoms: C_16  and  C_18
REMARK    5  A    between atoms: C_16  and  C_24
REMARK                            x       y       z     vdW  Elec       q    Type
REMARK                         _______ _______ _______ _____ _____    ______ ____
ROOT
ATOM      1  O   UNL     1       1.537   4.104  -5.286  0.00  0.00    -0.247 OA
ATOM      2  C   UNL     1       1.564   4.580  -5.474  0.00  0.00    +0.353 C 
ENDROOT
BRANCH   2   3
ATOM      3  C   UNL     1       1.427   5.509  -4.369  0.00  0.00    +0.252 C 
ATOM      4  O   UNL     1       1.558   4.602  -3.286  0.00  0.00    -0.205 OA
BRANCH   3   5
ATOM      5  C   UNL     1       0.111   6.149  -4.332  0.00  0.00    +0.019 A 
ATOM      6  C   UNL     1      -0.141   7.285  -5.045  0.00  0.00    -0.001 A 
ATOM      7  C   UNL     1      -1.289   8.024  -4.794  0.00  0.00    -0.000 A 
ATOM      8  C   UNL     1      -2.121   7.688  -3.737  0.00  0.00    -0.000 A 
ATOM      9  C   UNL     1      -1.931   6.454  -3.150  0.00  0.00    -0.000 A 
ATOM     10  C   UNL     1      -0.702   5.853  -3.251  0.00  0.00    -0.001 A 
ENDBRANCH   3   5
BRANCH   3  11
ATOM     11  C   UNL     1       2.508   6.478  -4.206  0.00  0.00    +0.019 A 
ATOM     12  C   UNL     1       2.588   6.983  -2.913  0.00  0.00    -0.001 A 
ATOM     13  C   UNL     1       3.633   7.752  -2.490  0.00  0.00    -0.000 A 
ATOM     14  C   UNL     1       4.707   7.880  -3.347  0.00  0.00    -0.000 A 
ATOM     15  C   UNL     1       4.468   7.678  -4.697  0.00  0.00    -0.000 A 
ATOM     16  C   UNL     1       3.383   6.929  -5.137  0.00  0.00    -0.001 A 
ENDBRANCH   3  11
ENDBRANCH   2   3
BRANCH   2  17
ATOM     17  O   UNL     1       0.795   4.337  -6.606  0.00  0.00    -0.450 OA
BRANCH  17  18
ATOM     18  C   UNL     1       1.406   4.916  -7.684  0.00  0.00    +0.180 C 
ATOM     19  C   UNL     1       0.807   6.109  -8.254  0.00  0.00    +0.099 C 
ATOM     20  C   UNL     1       1.685   6.893  -9.414  0.00  0.00    +0.062 C 
ATOM     21  N   UNL     1       2.027   5.609 -10.352  0.00  0.00    +0.289 N 
ATOM     22  C   UNL     1       2.396   5.551  -8.878  0.00  0.00    +0.062 C 
ATOM     23  C   UNL     1       3.974   5.723  -9.170  0.00  0.00    +0.061 C 
ATOM     24  C   UNL     1       0.866   4.717 -10.236  0.00  0.00    +0.108 C 
ATOM     25  C   UNL     1       0.297   4.541 -11.618  0.00  0.00    +0.067 C 
ATOM     26  C   UNL     1       0.301   6.025 -11.952  0.00  0.00    +0.067 C 
ATOM     27  C   UNL     1       1.550   6.459 -11.203  0.00  0.00    +0.108 C 
ATOM     28  C   UNL     1       3.174   6.991  -8.690  0.00  0.00    +0.061 C 
ATOM     29  C   UNL     1       2.242   3.945  -8.549  0.00  0.00    +0.099 C 
ENDBRANCH  17  18
ENDBRANCH   2  17
TORSDOF 5
ENDMDL
MODEL 3
REMARK VINA RESULT:      -9.1      1.415      3.938
REMARK  Name = 
REMARK  5 active torsions:
REMARK  status: ('A' for Active; 'I' for Inactive)
REMARK    1  A    between atoms: C_2  and  O_3
REMARK    2  A    between atoms: C_2  and  C_16
REMARK    3  A    between atoms: O_3  and  C_4
REMARK    4  A    between atoms: C_16  and  C_18
REMARK    5  A    between atoms: C_16  and  C_24
REMARK                            x       y       z     vdW  Elec       q    Type
REMARK                         _______ _______ _______ _____ _____    ______ ____
ROOT
ATOM      1  O   UNL     1       3.228   7.542  -8.724  0.00  0.00    -0.247 OA
ATOM      2  C   UNL     1       3.052   7.104  -8.525  0.00  0.00    +0.353 C 
ENDROOT
BRANCH   2   3
ATOM      3  C   UNL     1       3.451   6.018  -9.399  0.00  0.00    +0.252 C 
ATOM      4  O   UNL     1       3.457   4.955  -8.460  0.00  0.00    -0.205 OA
BRANCH   3   5
ATOM      5  C   UNL     1       4.791   6.206  -9.954  0.00  0.00    +0.019 A 
ATOM      6  C   UNL     1       5.875   5.583  -9.407  0.00  0.00    -0.001 A 
ATOM      7  C   UNL     1       7.158   5.975  -9.766  0.00  0.00    -0.000 A 
ATOM      8  C   UNL     1       7.351   7.080 -10.580  0.00  0.00    -0.000 A 
ATOM      9  C   UNL     1       6.248   7.577 -11.243  0.00  0.00    -0.000 A 
ATOM     10  C   UNL     1       5.000   7.335 -10.728  0.00  0.00    -0.001 A 
ENDBRANCH   3   5
BRANCH   3  11
ATOM     11  C   UNL     1       2.486   5.632 -10.426  0.00  0.00    +0.019 A 
ATOM     12  C   UNL     1       1.577   4.679  -9.979  0.00  0.00    -0.001 A 
ATOM     13  C   UNL     1       0.478   4.318 -10.705  0.00  0.00    -0.000 A 
ATOM     14  C   UNL     1       0.204   5.054 -11.838  0.00  0.00    -0.000 A 
ATOM     15  C   UNL     1       1.260   5.728 -12.429  0.00  0.00    -0.000 A 
ATOM     16  C   UNL     1       2.400   6.065 -11.707  0.00  0.00    -0.001 A 
ENDBRANCH   3  11
ENDBRANCH   2   3
BRANCH   2  17
ATOM     17  O   UNL     1       1.813   7.602  -8.139  0.00  0.00    -0.450 OA
BRANCH  17  18
ATOM     18  C   UNL     1       1.334   6.839  -7.110  0.00  0.00    +0.180 C 
ATOM     19  C   UNL     1       0.077   6.139  -7.302  0.00  0.00    +0.099 C 
ATOM     20  C   UNL     1      -0.358   5.069  -6.120  0.00  0.00    +0.062 C 
ATOM     21  N   UNL     1      -0.139   6.042  -4.834  0.00  0.00    +0.289 N 
ATOM     22  C   UNL     1       1.018   5.842  -5.800  0.00  0.00    +0.062 C 
ATOM     23  C   UNL     1       1.838   4.909  -4.771  0.00  0.00    +0.061 C 
ATOM     24  C   UNL     1      -0.475   7.393  -5.303  0.00  0.00    +0.108 C 
ATOM     25  C   UNL     1      -1.614   7.891  -4.454  0.00  0.00    +0.067 C 
ATOM     26  C   UNL     1      -2.444   6.624  -4.591  0.00  0.00    +0.067 C 
ATOM     27  C   UNL     1      -1.335   5.587  -4.642  0.00  0.00    +0.108 C 
ATOM     28  C   UNL     1       1.043   4.200  -5.930  0.00  0.00    +0.061 C 
ATOM     29  C   UNL     1       1.797   7.290  -5.706  0.00  0.00    +0.099 C 
ENDBRANCH  17  18
ENDBRANCH   2  17
TORSDOF 5
ENDMDL
MODEL 4
REMARK VINA RESULT:      -9.0      2.483      3.546
REMARK  Name = 
REMARK  5 active torsions:
REMARK  status: ('A' for Active; 'I' for Inactive)
REMARK    1  A    between atoms: C_2  and  O_3
REMARK    2  A    between atoms: C_2  and  C_16
REMARK    3  A    between atoms: O_3  and  C_4
REMARK    4  A    between atoms: C_16  and  C_18
REMARK    5  A    between atoms: C_16  and  C_24
REMARK                            x       y       z     vdW  Elec       q    Type
REMARK                         _______ _______ _______ _____ _____    ______ ____
ROOT
ATOM      1  O   UNL     1       1.594   7.027  -7.066  0.00  0.00    -0.247 OA
ATOM      2  C   UNL     1       2.047   6.790  -7.102  0.00  0.00    +0.353 C 
ENDROOT
BRANCH   2   3
ATOM      3  C   UNL     1       2.407   6.715  -8.505  0.00  0.00    +0.252 C 
ATOM      4  O   UNL     1       2.486   8.101  -8.798  0.00  0.00    -0.205 OA
BRANCH   3   5
ATOM      5  C   UNL     1       1.367   6.088  -9.321  0.00  0.00    +0.019 A 
ATOM      6  C   UNL     1       1.319   4.734  -9.485  0.00  0.00    -0.001 A 
ATOM      7  C   UNL     1       0.506   4.179 -10.463  0.00  0.00    -0.000 A 
ATOM      8  C   UNL     1      -0.165   4.994 -11.362  0.00  0.00    -0.000 A 
ATOM      9  C   UNL     1      -0.229   6.340 -11.068  0.00  0.00    -0.000 A 
ATOM     10  C   UNL     1       0.730   6.888 -10.253  0.00  0.00    -0.001 A 
ENDBRANCH   3   5
BRANCH   3  11
ATOM     11  C   UNL     1       3.731   6.172  -8.801  0.00  0.00    +0.019 A 
ATOM     12  C   UNL     1       4.261   6.663  -9.989  0.00  0.00    -0.001 A 
ATOM     13  C   UNL     1       5.555   6.441 -10.362  0.00  0.00    -0.000 A 
ATOM     14  C   UNL     1       6.382   5.843  -9.433  0.00  0.00    -0.000 A 
ATOM     15  C   UNL     1       5.781   5.079  -8.447  0.00  0.00    -0.000 A 
ATOM     16  C   UNL     1       4.452   5.273  -8.088  0.00  0.00    -0.001 A 
ENDBRANCH   3  11
ENDBRANCH   2   3
BRANCH   2  17
ATOM     17  O   UNL     1       1.785   5.822  -6.140  0.00  0.00    -0.450 OA
BRANCH  17  18
ATOM     18  C   UNL     1       2.633   6.013  -5.084  0.00  0.00    +0.180 C 
ATOM     19  C   UNL     1       3.468   4.902  -4.664  0.00  0.00    +0.099 C 
ATOM     20  C   UNL     1       4.621   5.235  -3.528  0.00  0.00    +0.062 C 
ATOM     21  N   UNL     1       3.674   6.011  -2.457  0.00  0.00    +0.289 N 
ATOM     22  C   UNL     1       3.705   6.508  -3.894  0.00  0.00    +0.062 C 
ATOM     23  C   UNL     1       4.572   7.816  -3.521  0.00  0.00    +0.061 C 
ATOM     24  C   UNL     1       2.356   5.372  -2.563  0.00  0.00    +0.108 C 
ATOM     25  C   UNL     1       2.022   4.807  -1.208  0.00  0.00    +0.067 C 
ATOM     26  C   UNL     1       3.371   4.132  -1.012  0.00  0.00    +0.067 C 
ATOM     27  C   UNL     1       4.271   5.132  -1.718  0.00  0.00    +0.108 C 
ATOM     28  C   UNL     1       5.327   6.594  -4.165  0.00  0.00    +0.061 C 
ATOM     29  C   UNL     1       2.180   7.102  -4.084  0.00  0.00    +0.099 C 
ENDBRANCH  17  18
ENDBRANCH   2  17
TORSDOF 5
ENDMDL
MODEL 5
REMARK VINA RESULT:      -9.0      2.726      7.835
REMARK  Name = 
REMARK  5 active torsions:
REMARK  status: ('A' for Active; 'I' for Inactive)
REMARK    1  A    between atoms: C_2  and  O_3
REMARK    2  A    between atoms: C_2  and  C_16
REMARK    3  A    between atoms: O_3  and  C_4
REMARK    4  A    between atoms: C_16  and  C_18
REMARK    5  A    between atoms: C_16  and  C_24
REMARK                            x       y       z     vdW  Elec       q    Type
REMARK                         _______ _______ _______ _____ _____    ______ ____
ROOT
ATOM      1  O   UNL     1       2.437   6.190  -8.678  0.00  0.00    -0.247 OA
ATOM      2  C   UNL     1       2.837   6.380  -8.419  0.00  0.00    +0.353 C 
ENDROOT
BRANCH   2   3
ATOM      3  C   UNL     1       2.414   6.629  -7.054  0.00  0.00    +0.252 C 
ATOM      4  O   UNL     1       2.360   8.046  -7.083  0.00  0.00    -0.205 OA
BRANCH   3   5
ATOM      5  C   UNL     1       3.400   6.184  -6.069  0.00  0.00    +0.019 A 
ATOM      6  C   UNL     1       3.369   4.918  -5.561  0.00  0.00    -0.001 A 
ATOM      7  C   UNL     1       4.129   4.596  -4.445  0.00  0.00    -0.000 A 
ATOM      8  C   UNL     1       4.825   5.583  -3.764  0.00  0.00    -0.000 A 
ATOM      9  C   UNL     1       4.971   6.802  -4.391  0.00  0.00    -0.000 A 
ATOM     10  C   UNL     1       4.061   7.167  -5.352  0.00  0.00    -0.001 A 
ENDBRANCH   3   5
BRANCH   3  11
ATOM     11  C   UNL     1       1.064   6.189  -6.709  0.00  0.00    +0.019 A 
ATOM     12  C   UNL     1       0.524   6.896  -5.640  0.00  0.00    -0.001 A 
ATOM     13  C   UNL     1      -0.786   6.784  -5.274  0.00  0.00    -0.000 A 
ATOM     14  C   UNL     1      -1.612   6.060  -6.110  0.00  0.00    -0.000 A 
ATOM     15  C   UNL     1      -1.015   5.118  -6.930  0.00  0.00    -0.000 A 
ATOM     16  C   UNL     1       0.328   5.203  -7.276  0.00  0.00    -0.001 A 
ENDBRANCH   3  11
ENDBRANCH   2   3
BRANCH   2  17
ATOM     17  O   UNL     1       3.292   7.212  -9.434  0.00  0.00    -0.450 OA
BRANCH  17  18
ATOM     18  C   UNL     1       4.482   6.725  -9.902  0.00  0.00    +0.180 C 
ATOM     19  C   UNL     1       5.225   7.527 -10.856  0.00  0.00    +0.099 C 
ATOM     20  C   UNL     1       6.746   7.003 -11.232  0.00  0.00    +0.062 C 
ATOM     21  N   UNL     1       6.383   5.451 -11.559  0.00  0.00    +0.289 N 
ATOM     22  C   UNL     1       5.973   6.026 -10.212  0.00  0.00    +0.062 C 
ATOM     23  C   UNL     1       7.110   5.208  -9.412  0.00  0.00    +0.061 C 
ATOM     24  C   UNL     1       5.032   5.477 -12.134  0.00  0.00    +0.108 C 
ATOM     25  C   UNL     1       5.122   4.891 -13.518  0.00  0.00    +0.067 C 
ATOM     26  C   UNL     1       6.327   5.722 -13.933  0.00  0.00    +0.067 C 
ATOM     27  C   UNL     1       7.059   5.807 -12.603  0.00  0.00    +0.108 C 
ATOM     28  C   UNL     1       7.381   6.727  -9.725  0.00  0.00    +0.061 C 
ATOM     29  C   UNL     1       4.596   5.183  -9.885  0.00  0.00    +0.099 C 
ENDBRANCH  17  18
ENDBRANCH   2  17
TORSDOF 5
ENDMDL
MODEL 6
REMARK VINA RESULT:      -9.0      2.727      7.135
REMARK  Name = 
REMARK  5 active torsions:
REMARK  status: ('A' for Active; 'I' for Inactive)
REMARK    1  A    between atoms: C_2  and  O_3
REMARK    2  A    between atoms: C_2  and  C_16
REMARK    3  A    between atoms: O_3  and  C_4
REMARK    4  A    between atoms: C_16  and  C_18
REMARK    5  A    between atoms: C_16  and  C_24
REMARK                            x       y       z     vdW  Elec       q    Type
REMARK                         _______ _______ _______ _____ _____    ______ ____
ROOT
ATOM      1  O   UNL     1       2.163   5.993  -8.692  0.00  0.00    -0.247 OA
ATOM      2  C   UNL     1       2.582   5.930  -8.403  0.00  0.00    +0.353 C 
ENDROOT
BRANCH   2   3
ATOM      3  C   UNL     1       2.160   5.504  -7.082  0.00  0.00    +0.252 C 
ATOM      4  O   UNL     1       2.200   4.099  -7.269  0.00  0.00    -0.205 OA
BRANCH   3   5
ATOM      5  C   UNL     1       0.797   5.930  -6.763  0.00  0.00    +0.019 A 
ATOM      6  C   UNL     1       0.561   6.898  -5.830  0.00  0.00    -0.001 A 
ATOM      7  C   UNL     1      -0.724   7.100  -5.346  0.00  0.00    -0.000 A 
ATOM      8  C   UNL     1      -1.752   6.242  -5.707  0.00  0.00    -0.000 A 
ATOM      9  C   UNL     1      -1.520   5.390  -6.767  0.00  0.00    -0.000 A 
ATOM     10  C   UNL     1      -0.227   5.054  -7.078  0.00  0.00    -0.001 A 
ENDBRANCH   3   5
BRANCH   3  11
ATOM     11  C   UNL     1       3.088   5.784  -5.990  0.00  0.00    +0.019 A 
ATOM     12  C   UNL     1       3.221   4.715  -5.110  0.00  0.00    -0.001 A 
ATOM     13  C   UNL     1       4.172   4.686  -4.131  0.00  0.00    -0.000 A 
ATOM     14  C   UNL     1       5.119   5.690  -4.144  0.00  0.00    -0.000 A 
ATOM     15  C   UNL     1       4.776   6.876  -4.773  0.00  0.00    -0.000 A 
ATOM     16  C   UNL     1       3.781   6.922  -5.743  0.00  0.00    -0.001 A 
ENDBRANCH   3  11
ENDBRANCH   2   3
BRANCH   2  17
ATOM     17  O   UNL     1       3.251   7.058  -8.864  0.00  0.00    -0.450 OA
BRANCH  17  18
ATOM     18  C   UNL     1       4.365   6.657  -9.550  0.00  0.00    +0.180 C 
ATOM     19  C   UNL     1       4.855   7.507 -10.621  0.00  0.00    +0.099 C 
ATOM     20  C   UNL     1       6.313   7.095 -11.279  0.00  0.00    +0.062 C 
ATOM     21  N   UNL     1       6.011   5.518 -11.544  0.00  0.00    +0.289 N 
ATOM     22  C   UNL     1       5.819   6.069 -10.140  0.00  0.00    +0.062 C 
ATOM     23  C   UNL     1       7.144   5.343  -9.573  0.00  0.00    +0.061 C 
ATOM     24  C   UNL     1       4.578   5.440 -11.856  0.00  0.00    +0.108 C 
ATOM     25  C   UNL     1       4.451   4.854 -13.236  0.00  0.00    +0.067 C 
ATOM     26  C   UNL     1       5.492   5.769 -13.863  0.00  0.00    +0.067 C 
ATOM     27  C   UNL     1       6.451   5.917 -12.694  0.00  0.00    +0.108 C 
ATOM     28  C   UNL     1       7.238   6.876  -9.919  0.00  0.00    +0.061 C 
ATOM     29  C   UNL     1       4.595   5.128  -9.567  0.00  0.00    +0.099 C 
ENDBRANCH  17  18
ENDBRANCH   2  17
TORSDOF 5
ENDMDL
MODEL 7
REMARK VINA RESULT:      -8.9      2.178      4.722
REMARK  Name = 
REMARK  5 active torsions:
REMARK  status: ('A' for Active; 'I' for Inactive)
REMARK    1  A    between atoms: C_2  and  O_3
REMARK    2  A    between atoms: C_2  and  C_16
REMARK    3  A    between atoms: O_3  and  C_4
REMARK    4  A    between atoms: C_16  and  C_18
REMARK    5  A    between atoms: C_16  and  C_24
REMARK                            x       y       z     vdW  Elec       q    Type
REMARK                         _______ _______ _______ _____ _____    ______ ____
ROOT
ATOM      1  O   UNL     1       3.630   4.808  -7.508  0.00  0.00    -0.247 OA
ATOM      2  C   UNL     1       3.792   5.280  -7.623  0.00  0.00    +0.353 C 
ENDROOT
BRANCH   2   3
ATOM      3  C   UNL     1       3.833   5.403  -9.068  0.00  0.00    +0.252 C 
ATOM      4  O   UNL     1       3.973   4.034  -9.413  0.00  0.00    -0.205 OA
BRANCH   3   5
ATOM      5  C   UNL     1       4.994   6.161  -9.535  0.00  0.00    +0.019 A 
ATOM      6  C   UNL     1       4.856   7.185 -10.426  0.00  0.00    -0.001 A 
ATOM      7  C   UNL     1       5.973   7.711 -11.061  0.00  0.00    -0.000 A 
ATOM      8  C   UNL     1       7.216   7.121 -10.894  0.00  0.00    -0.000 A 
ATOM      9  C   UNL     1       7.349   6.206  -9.871  0.00  0.00    -0.000 A 
ATOM     10  C   UNL     1       6.232   5.553  -9.415  0.00  0.00    -0.001 A 
ENDBRANCH   3   5
BRANCH   3  11
ATOM     11  C   UNL     1       2.599   5.848  -9.709  0.00  0.00    +0.019 A 
ATOM     12  C   UNL     1       2.411   5.283 -10.966  0.00  0.00    -0.001 A 
ATOM     13  C   UNL     1       1.242   5.408 -11.659  0.00  0.00    -0.000 A 
ATOM     14  C   UNL     1       0.177   5.983 -10.996  0.00  0.00    -0.000 A 
ATOM     15  C   UNL     1       0.469   6.818  -9.931  0.00  0.00    -0.000 A 
ATOM     16  C   UNL     1       1.675   6.724  -9.245  0.00  0.00    -0.001 A 
ENDBRANCH   3  11
ENDBRANCH   2   3
BRANCH   2  17
ATOM     17  O   UNL     1       4.773   5.345  -6.640  0.00  0.00    -0.450 OA
BRANCH  17  18
ATOM     18  C   UNL     1       4.209   5.818  -5.488  0.00  0.00    +0.180 C 
ATOM     19  C   UNL     1       3.759   4.855  -4.498  0.00  0.00    +0.099 C 
ATOM     20  C   UNL     1       3.280   5.467  -3.040  0.00  0.00    +0.062 C 
ATOM     21  N   UNL     1       2.273   6.620  -3.592  0.00  0.00    +0.289 N 
ATOM     22  C   UNL     1       3.708   6.605  -4.096  0.00  0.00    +0.062 C 
ATOM     23  C   UNL     1       4.125   7.900  -3.227  0.00  0.00    +0.061 C 
ATOM     24  C   UNL     1       1.691   6.076  -4.826  0.00  0.00    +0.108 C 
ATOM     25  C   UNL     1       0.200   6.019  -4.630  0.00  0.00    +0.067 C 
ATOM     26  C   UNL     1       0.272   5.357  -3.263  0.00  0.00    +0.067 C 
ATOM     27  C   UNL     1       1.540   5.999  -2.726  0.00  0.00    +0.108 C 
ATOM     28  C   UNL     1       4.540   6.484  -2.679  0.00  0.00    +0.061 C 
ATOM     29  C   UNL     1       3.542   7.206  -5.620  0.00  0.00    +0.099 C 
ENDBRANCH  17  18
ENDBRANCH   2  17
TORSDOF 5
ENDMDL
MODEL 8
REMARK VINA RESULT:      -8.9      2.109      6.689
REMARK  Name = 
REMARK  5 active torsions:
REMARK  status: ('A' for Active; 'I' for Inactive)
REMARK    1  A    between atoms: C_2  and  O_3
REMARK    2  A    between atoms: C_2  and  C_16
REMARK    3  A    between atoms: O_3  and  C_4
REMARK    4  A    between atoms: C_16  and  C_18
REMARK    5  A    between atoms: C_16  and  C_24
REMARK                            x       y       z     vdW  Elec       q    Type
REMARK                         _______ _______ _______ _____ _____    ______ ____
ROOT
ATOM      1  O   UNL     1       3.064   6.272  -5.334  0.00  0.00    -0.247 OA
ATOM      2  C   UNL     1       2.679   6.591  -5.222  0.00  0.00    +0.353 C 
ENDROOT
BRANCH   2   3
ATOM      3  C   UNL     1       1.583   5.805  -4.687  0.00  0.00    +0.252 C 
ATOM      4  O   UNL     1       2.024   4.510  -5.062  0.00  0.00    -0.205 OA
BRANCH   3   5
ATOM      5  C   UNL     1       0.306   6.108  -5.334  0.00  0.00    +0.019 A 
ATOM      6  C   UNL     1      -0.532   7.059  -4.829  0.00  0.00    -0.001 A 
ATOM      7  C   UNL     1      -1.841   7.147  -5.284  0.00  0.00    -0.000 A 
ATOM      8  C   UNL     1      -2.343   6.196  -6.158  0.00  0.00    -0.000 A 
ATOM      9  C   UNL     1      -1.435   5.358  -6.772  0.00  0.00    -0.000 A 
ATOM     10  C   UNL     1      -0.222   5.138  -6.169  0.00  0.00    -0.001 A 
ENDBRANCH   3   5
BRANCH   3  11
ATOM     11  C   UNL     1       1.463   5.776  -3.232  0.00  0.00    +0.019 A 
ATOM     12  C   UNL     1       2.413   6.570  -2.598  0.00  0.00    -0.001 A 
ATOM     13  C   UNL     1       2.366   6.840  -1.260  0.00  0.00    -0.000 A 
ATOM     14  C   UNL     1       1.241   6.430  -0.575  0.00  0.00    -0.000 A 
ATOM     15  C   UNL     1       0.513   5.385  -1.118  0.00  0.00    -0.000 A 
ATOM     16  C   UNL     1       0.585   5.077  -2.472  0.00  0.00    -0.001 A 
ENDBRANCH   3  11
ENDBRANCH   2   3
BRANCH   2  17
ATOM     17  O   UNL     1       2.808   7.387  -6.354  0.00  0.00    -0.450 OA
BRANCH  17  18
ATOM     18  C   UNL     1       2.909   6.576  -7.451  0.00  0.00    +0.180 C 
ATOM     19  C   UNL     1       4.118   5.788  -7.614  0.00  0.00    +0.099 C 
ATOM     20  C   UNL     1       4.110   4.672  -8.832  0.00  0.00    +0.062 C 
ATOM     21  N   UNL     1       3.585   5.640 -10.030  0.00  0.00    +0.289 N 
ATOM     22  C   UNL     1       2.756   5.540  -8.759  0.00  0.00    +0.062 C 
ATOM     23  C   UNL     1       1.608   4.654  -9.466  0.00  0.00    +0.061 C 
ATOM     24  C   UNL     1       4.132   6.969  -9.730  0.00  0.00    +0.108 C 
ATOM     25  C   UNL     1       4.997   7.370 -10.894  0.00  0.00    +0.067 C 
ATOM     26  C   UNL     1       5.746   6.048 -10.963  0.00  0.00    +0.067 C 
ATOM     27  C   UNL     1       4.637   5.095 -10.550  0.00  0.00    +0.108 C 
ATOM     28  C   UNL     1       2.663   3.906  -8.569  0.00  0.00    +0.061 C 
ATOM     29  C   UNL     1       2.080   7.039  -8.671  0.00  0.00    +0.099 C 
ENDBRANCH  17  18
ENDBRANCH   2  17
TORSDOF 5
ENDMDL
MODEL 9
REMARK VINA RESULT:      -8.8      1.002      3.572
REMARK  Name = 
REMARK  5 active torsions:
REMARK  status: ('A' for Active; 'I' for Inactive)
REMARK    1  A    between atoms: C_2  and  O_3
REMARK    2  A    between atoms: C_2  and  C_16
REMARK    3  A    between atoms: O_3  and  C_4
REMARK    4  A    between atoms: C_16  and  C_18
REMARK    5  A    between atoms: C_16  and  C_24
REMARK                            x       y       z     vdW  Elec       q    Type
REMARK                         _______ _______ _______ _____ _____    ______ ____
ROOT
ATOM      1  O   UNL     1       3.794   5.405  -6.998  0.00  0.00    -0.247 OA
ATOM      2  C   UNL     1       3.319   5.405  -7.190  0.00  0.00    +0.353 C 
ENDROOT
BRANCH   2   3
ATOM      3  C   UNL     1       3.413   5.269  -8.631  0.00  0.00    +0.252 C 
ATOM      4  O   UNL     1       3.559   3.861  -8.721  0.00  0.00    -0.205 OA
BRANCH   3   5
ATOM      5  C   UNL     1       4.594   5.933  -9.183  0.00  0.00    +0.019 A 
ATOM      6  C   UNL     1       4.480   6.872 -10.167  0.00  0.00    -0.001 A 
ATOM      7  C   UNL     1       5.605   7.292 -10.863  0.00  0.00    -0.000 A 
ATOM      8  C   UNL     1       6.829   6.673 -10.654  0.00  0.00    -0.000 A 
ATOM      9  C   UNL     1       6.944   5.857  -9.548  0.00  0.00    -0.000 A 
ATOM     10  C   UNL     1       5.810   5.293  -9.018  0.00  0.00    -0.001 A 
ENDBRANCH   3   5
BRANCH   3  11
ATOM     11  C   UNL     1       2.205   5.590  -9.387  0.00  0.00    +0.019 A 
ATOM     12  C   UNL     1       1.657   4.481 -10.023  0.00  0.00    -0.001 A 
ATOM     13  C   UNL     1       0.432   4.511 -10.623  0.00  0.00    -0.000 A 
ATOM     14  C   UNL     1      -0.332   5.645 -10.436  0.00  0.00    -0.000 A 
ATOM     15  C   UNL     1       0.338   6.815 -10.118  0.00  0.00    -0.000 A 
ATOM     16  C   UNL     1       1.603   6.794  -9.543  0.00  0.00    -0.001 A 
ENDBRANCH   3  11
ENDBRANCH   2   3
BRANCH   2  17
ATOM     17  O   UNL     1       2.824   6.407  -6.365  0.00  0.00    -0.450 OA
BRANCH  17  18
ATOM     18  C   UNL     1       1.532   6.107  -6.034  0.00  0.00    +0.180 C 
ATOM     19  C   UNL     1       0.726   7.138  -5.405  0.00  0.00    +0.099 C 
ATOM     20  C   UNL     1      -0.881   6.803  -5.215  0.00  0.00    +0.062 C 
ATOM     21  N   UNL     1      -0.733   5.335  -4.530  0.00  0.00    +0.289 N 
ATOM     22  C   UNL     1      -0.052   5.586  -5.867  0.00  0.00    +0.062 C 
ATOM     23  C   UNL     1      -1.120   4.693  -6.684  0.00  0.00    +0.061 C 
ATOM     24  C   UNL     1       0.502   5.394  -3.737  0.00  0.00    +0.108 C 
ATOM     25  C   UNL     1       0.128   5.120  -2.305  0.00  0.00    +0.067 C 
ATOM     26  C   UNL     1      -1.040   6.094  -2.286  0.00  0.00    +0.067 C 
ATOM     27  C   UNL     1      -1.531   5.945  -3.716  0.00  0.00    +0.108 C 
ATOM     28  C   UNL     1      -1.285   6.258  -6.729  0.00  0.00    +0.061 C 
ATOM     29  C   UNL     1       1.268   4.606  -5.769  0.00  0.00    +0.099 C 
ENDBRANCH  17  18
ENDBRANCH   2  17
TORSDOF 5
ENDMDL
