MODEL 1
REMARK VINA RESULT:      -7.6      0.000      0.000
REMARK  Name = 
REMARK  8 active torsions:
REMARK  status: ('A' for Active; 'I' for Inactive)
REMARK    1  A    between atoms: O_2  and  C_3
REMARK    2  A    between atoms: C_6  and  C_7
REMARK    3  A    between atoms: C_7  and  C_8
REMARK    4  A    between atoms: C_8  and  N_10
REMARK    5  A    between atoms: N_10  and  C_11
REMARK    6  A    between atoms: C_11  and  C_12
REMARK    7  A    between atoms: C_12  and  C_14
REMARK    8  A    between atoms: C_19  and  N_20
REMARK                            x       y       z     vdW  Elec       q    Type
REMARK                         _______ _______ _______ _____ _____    ______ ____
ROOT
ATOM      1  C   UNL     1       1.567   6.336  -9.198  0.00  0.00    +0.126 C 
ENDROOT
BRANCH   1   2
ATOM      2  C   UNL     1       0.217   5.427  -9.556  0.00  0.00    +0.192 C 
ATOM      3  O   UNL     1       1.071   4.213  -9.946  0.00  0.00    -0.217 OA
BRANCH   2   4
ATOM      4  C   UNL     1       0.157   5.992 -11.082  0.00  0.00    +0.011 A 
ATOM      5  C   UNL     1       0.885   5.274 -11.992  0.00  0.00    +0.018 A 
ATOM      6  C   UNL     1       1.094   5.886 -13.223  0.00  0.00    +0.112 A 
ATOM      7  C   UNL     1       0.700   7.201 -13.441  0.00  0.00    +0.211 A 
ATOM      8  O   UNL     1       1.194   7.946 -14.517  0.00  0.00    -0.285 OA
ATOM      9  C   UNL     1      -0.256   7.721 -12.578  0.00  0.00    +0.043 A 
ATOM     10  C   UNL     1      -0.398   7.202 -11.293  0.00  0.00    +0.002 A 
BRANCH   6  11
ATOM     11  N   UNL     1       1.756   5.196 -14.265  0.00  0.00    -0.168 NA
ATOM     12  C   UNL     1       3.145   4.948 -14.121  0.00  0.00    +0.325 C 
ATOM     13  O   UNL     1       3.876   5.881 -13.735  0.00  0.00    -0.263 OA
ENDBRANCH   6  11
ENDBRANCH   2   4
ENDBRANCH   1   2
BRANCH   1  14
ATOM     14  N   UNL     1       2.397   5.269  -8.635  0.00  0.00    -0.216 NA
BRANCH  14  15
ATOM     15  C   UNL     1       3.724   6.007  -8.188  0.00  0.00    +0.077 C 
ATOM     16  C   UNL     1       2.873   7.211  -7.447  0.00  0.00    +0.019 C 
BRANCH  15  17
ATOM     17  C   UNL     1       3.804   6.845  -9.607  0.00  0.00    +0.044 C 
BRANCH  17  21
ATOM     18  C   UNL     1       7.584   6.238 -11.226  0.00  0.00    +0.139 A 
ATOM     19  C   UNL     1       6.848   7.289 -11.699  0.00  0.00    +0.037 A 
ATOM     20  C   UNL     1       5.595   7.447 -11.119  0.00  0.00    -0.001 A 
ATOM     21  C   UNL     1       5.136   6.541 -10.170  0.00  0.00    -0.021 A 
ATOM     22  C   UNL     1       6.061   5.768  -9.475  0.00  0.00    -0.001 A 
ATOM     23  C   UNL     1       7.303   5.597 -10.056  0.00  0.00    +0.037 A 
BRANCH  18  25
ATOM     24  C   UNL     1       8.971   5.862 -12.070  0.00  0.00    +0.252 C 
ATOM     25  O   UNL     1       8.745   5.914 -11.916  0.00  0.00    -0.471 OA
ENDBRANCH  18  25
ENDBRANCH  17  21
ENDBRANCH  15  17
ENDBRANCH  14  15
ENDBRANCH   1  14
TORSDOF 8
ENDMDL
MODEL 2
REMARK VINA RESULT:      -7.6      2.062      5.679
REMARK  Name = 
REMARK  8 active torsions:
REMARK  status: ('A' for Active; 'I' for Inactive)
REMARK    1  A    between atoms: O_2  and  C_3
REMARK    2  A    between atoms: C_6  and  C_7
REMARK    3  A    between atoms: C_7  and  C_8
REMARK    4  A    between atoms: C_8  and  N_10
REMARK    5  A    between atoms: N_10  and  C_11
REMARK    6  A    between atoms: C_11  and  C_12
REMARK    7  A    between atoms: C_12  and  C_14
REMARK    8  A    between atoms: C_19  and  N_20
REMARK                            x       y       z     vdW  Elec       q    Type
REMARK                         _______ _______ _______ _____ _____    ______ ____
ROOT
ATOM      1  C   UNL     1       2.766   6.085  -7.891  0.00  0.00    +0.126 C 
ENDROOT
BRANCH   1   2
ATOM      2  C   UNL     1       3.852   4.840  -8.116  0.00  0.00    +0.192 C 
ATOM      3  O   UNL     1       4.837   5.446  -7.106  0.00  0.00    -0.217 OA
BRANCH   2   4
ATOM      4  C   UNL     1       4.550   5.588  -9.384  0.00  0.00    +0.011 A 
ATOM      5  C   UNL     1       5.901   5.401  -9.490  0.00  0.00    +0.018 A 
ATOM      6  C   UNL     1       6.564   6.250 -10.372  0.00  0.00    +0.112 A 
ATOM      7  C   UNL     1       5.896   7.303 -10.985  0.00  0.00    +0.211 A 
ATOM      8  O   UNL     1       6.589   8.359 -11.586  0.00  0.00    -0.285 OA
ATOM      9  C   UNL     1       4.510   7.227 -11.030  0.00  0.00    +0.043 A 
ATOM     10  C   UNL     1       3.817   6.480 -10.080  0.00  0.00    +0.002 A 
BRANCH   6  11
ATOM     11  N   UNL     1       7.945   6.084 -10.624  0.00  0.00    -0.168 NA
ATOM     12  C   UNL     1       8.335   5.585 -11.893  0.00  0.00    +0.325 C 
ATOM     13  O   UNL     1       7.725   4.600 -12.354  0.00  0.00    -0.263 OA
ENDBRANCH   6  11
ENDBRANCH   2   4
ENDBRANCH   1   2
BRANCH   1  14
ATOM     14  N   UNL     1       1.580   5.280  -7.592  0.00  0.00    -0.216 NA
BRANCH  14  15
ATOM     15  C   UNL     1       0.391   6.079  -8.263  0.00  0.00    +0.077 C 
ATOM     16  C   UNL     1      -0.734   5.273  -7.365  0.00  0.00    +0.019 C 
BRANCH  15  17
ATOM     17  C   UNL     1       0.281   4.992  -9.500  0.00  0.00    +0.044 C 
BRANCH  17  21
ATOM     18  C   UNL     1       0.489   7.033 -13.114  0.00  0.00    +0.139 A 
ATOM     19  C   UNL     1       0.872   5.721 -13.099  0.00  0.00    +0.037 A 
ATOM     20  C   UNL     1       0.777   5.087 -11.866  0.00  0.00    -0.001 A 
ATOM     21  C   UNL     1       0.374   5.792 -10.738  0.00  0.00    -0.021 A 
ATOM     22  C   UNL     1      -0.356   6.965 -10.903  0.00  0.00    -0.001 A 
ATOM     23  C   UNL     1      -0.253   7.605 -12.123  0.00  0.00    +0.037 A 
BRANCH  18  25
ATOM     24  C   UNL     1       0.797   7.910 -14.498  0.00  0.00    +0.252 C 
ATOM     25  O   UNL     1       0.762   7.762 -14.264  0.00  0.00    -0.471 OA
ENDBRANCH  18  25
ENDBRANCH  17  21
ENDBRANCH  15  17
ENDBRANCH  14  15
ENDBRANCH   1  14
TORSDOF 8
ENDMDL
MODEL 3
REMARK VINA RESULT:      -7.6      6.476      9.980
REMARK  Name = 
REMARK  8 active torsions:
REMARK  status: ('A' for Active; 'I' for Inactive)
REMARK    1  A    between atoms: O_2  and  C_3
REMARK    2  A    between atoms: C_6  and  C_7
REMARK    3  A    between atoms: C_7  and  C_8
REMARK    4  A    between atoms: C_8  and  N_10
REMARK    5  A    between atoms: N_10  and  C_11
REMARK    6  A    between atoms: C_11  and  C_12
REMARK    7  A    between atoms: C_12  and  C_14
REMARK    8  A    between atoms: C_19  and  N_20
REMARK                            x       y       z     vdW  Elec       q    Type
REMARK                         _______ _______ _______ _____ _____    ______ ____
ROOT
ATOM      1  C   UNL     1       0.876   6.555  -0.264  0.00  0.00    +0.126 C 
ENDROOT
BRANCH   1   2
ATOM      2  C   UNL     1       0.815   5.194  -1.224  0.00  0.00    +0.192 C 
ATOM      3  O   UNL     1       2.174   4.702  -0.707  0.00  0.00    -0.217 OA
BRANCH   2   4
ATOM      4  C   UNL     1       1.476   5.975  -2.491  0.00  0.00    +0.011 A 
ATOM      5  C   UNL     1       1.038   5.557  -3.718  0.00  0.00    +0.018 A 
ATOM      6  C   UNL     1       1.785   5.987  -4.810  0.00  0.00    +0.112 A 
ATOM      7  C   UNL     1       2.977   6.679  -4.629  0.00  0.00    +0.211 A 
ATOM      8  O   UNL     1       3.909   6.817  -5.663  0.00  0.00    -0.285 OA
ATOM      9  C   UNL     1       3.172   7.282  -3.393  0.00  0.00    +0.043 A 
ATOM     10  C   UNL     1       2.526   6.789  -2.262  0.00  0.00    +0.002 A 
BRANCH   6  11
ATOM     11  N   UNL     1       1.370   5.687  -6.128  0.00  0.00    -0.168 NA
ATOM     12  C   UNL     1       1.324   4.324  -6.516  0.00  0.00    +0.325 C 
ATOM     13  O   UNL     1       2.292   3.593  -6.228  0.00  0.00    -0.263 OA
ENDBRANCH   6  11
ENDBRANCH   2   4
ENDBRANCH   1   2
BRANCH   1  14
ATOM     14  N   UNL     1      -0.510   6.546   0.206  0.00  0.00    -0.216 NA
BRANCH  14  15
ATOM     15  C   UNL     1      -1.147   7.841  -0.443  0.00  0.00    +0.077 C 
ATOM     16  C   UNL     1      -1.787   8.319   1.001  0.00  0.00    +0.019 C 
BRANCH  15  17
ATOM     17  C   UNL     1      -2.520   7.028  -0.860  0.00  0.00    +0.044 C 
BRANCH  17  21
ATOM     18  C   UNL     1      -2.379   6.126  -4.914  0.00  0.00    +0.139 A 
ATOM     19  C   UNL     1      -2.998   5.234  -4.084  0.00  0.00    +0.037 A 
ATOM     20  C   UNL     1      -3.020   5.589  -2.740  0.00  0.00    -0.001 A 
ATOM     21  C   UNL     1      -2.391   6.750  -2.305  0.00  0.00    -0.021 A 
ATOM     22  C   UNL     1      -2.145   7.766  -3.223  0.00  0.00    -0.001 A 
ATOM     23  C   UNL     1      -2.109   7.414  -4.559  0.00  0.00    +0.037 A 
BRANCH  18  25
ATOM     24  C   UNL     1      -2.120   5.644  -6.489  0.00  0.00    +0.252 C 
ATOM     25  O   UNL     1      -2.147   5.720  -6.223  0.00  0.00    -0.471 OA
ENDBRANCH  18  25
ENDBRANCH  17  21
ENDBRANCH  15  17
ENDBRANCH  14  15
ENDBRANCH   1  14
TORSDOF 8
ENDMDL
MODEL 4
REMARK VINA RESULT:      -7.4      4.066      7.872
REMARK  Name = 
REMARK  8 active torsions:
REMARK  status: ('A' for Active; 'I' for Inactive)
REMARK    1  A    between atoms: O_2  and  C_3
REMARK    2  A    between atoms: C_6  and  C_7
REMARK    3  A    between atoms: C_7  and  C_8
REMARK    4  A    between atoms: C_8  and  N_10
REMARK    5  A    between atoms: N_10  and  C_11
REMARK    6  A    between atoms: C_11  and  C_12
REMARK    7  A    between atoms: C_12  and  C_14
REMARK    8  A    between atoms: C_19  and  N_20
REMARK                            x       y       z     vdW  Elec       q    Type
REMARK                         _______ _______ _______ _____ _____    ______ ____
ROOT
ATOM      1  C   UNL     1       2.784   5.163  -8.318  0.00  0.00    +0.126 C 
ENDROOT
BRANCH   1   2
ATOM      2  C   UNL     1       4.362   4.720  -8.018  0.00  0.00    +0.192 C 
ATOM      3  O   UNL     1       4.569   5.902  -7.061  0.00  0.00    -0.217 OA
BRANCH   2   4
ATOM      4  C   UNL     1       4.912   5.549  -9.308  0.00  0.00    +0.011 A 
ATOM      5  C   UNL     1       6.249   5.403  -9.560  0.00  0.00    +0.018 A 
ATOM      6  C   UNL     1       6.801   6.313 -10.456  0.00  0.00    +0.112 A 
ATOM      7  C   UNL     1       6.053   7.379 -10.942  0.00  0.00    +0.211 A 
ATOM      8  O   UNL     1       6.659   8.482 -11.552  0.00  0.00    -0.285 OA
ATOM      9  C   UNL     1       4.671   7.269 -10.851  0.00  0.00    +0.043 A 
ATOM     10  C   UNL     1       4.094   6.457  -9.878  0.00  0.00    +0.002 A 
BRANCH   6  11
ATOM     11  N   UNL     1       8.153   6.197 -10.855  0.00  0.00    -0.168 NA
ATOM     12  C   UNL     1       8.423   5.691 -12.152  0.00  0.00    +0.325 C 
ATOM     13  O   UNL     1       7.808   4.676 -12.531  0.00  0.00    -0.263 OA
ENDBRANCH   6  11
ENDBRANCH   2   4
ENDBRANCH   1   2
BRANCH   1  14
ATOM     14  N   UNL     1       2.352   5.357  -6.933  0.00  0.00    -0.216 NA
BRANCH  14  15
ATOM     15  C   UNL     1       0.795   5.075  -6.971  0.00  0.00    +0.077 C 
ATOM     16  C   UNL     1       0.711   5.440  -8.578  0.00  0.00    +0.019 C 
BRANCH  15  17
ATOM     17  C   UNL     1       0.445   6.627  -6.532  0.00  0.00    +0.044 C 
BRANCH  17  21
ATOM     18  C   UNL     1      -2.709   6.581  -3.826  0.00  0.00    +0.139 A 
ATOM     19  C   UNL     1      -1.920   7.697  -3.868  0.00  0.00    +0.037 A 
ATOM     20  C   UNL     1      -0.884   7.659  -4.794  0.00  0.00    -0.001 A 
ATOM     21  C   UNL     1      -0.664   6.522  -5.562  0.00  0.00    -0.021 A 
ATOM     22  C   UNL     1      -1.709   5.622  -5.746  0.00  0.00    -0.001 A 
ATOM     23  C   UNL     1      -2.733   5.647  -4.819  0.00  0.00    +0.037 A 
BRANCH  18  25
ATOM     24  C   UNL     1      -3.795   6.485  -2.565  0.00  0.00    +0.252 C 
ATOM     25  O   UNL     1      -3.619   6.485  -2.781  0.00  0.00    -0.471 OA
ENDBRANCH  18  25
ENDBRANCH  17  21
ENDBRANCH  15  17
ENDBRANCH  14  15
ENDBRANCH   1  14
TORSDOF 8
ENDMDL
MODEL 5
REMARK VINA RESULT:      -7.4      3.393      7.297
REMARK  Name = 
REMARK  8 active torsions:
REMARK  status: ('A' for Active; 'I' for Inactive)
REMARK    1  A    between atoms: O_2  and  C_3
REMARK    2  A    between atoms: C_6  and  C_7
REMARK    3  A    between atoms: C_7  and  C_8
REMARK    4  A    between atoms: C_8  and  N_10
REMARK    5  A    between atoms: N_10  and  C_11
REMARK    6  A    between atoms: C_11  and  C_12
REMARK    7  A    between atoms: C_12  and  C_14
REMARK    8  A    between atoms: C_19  and  N_20
REMARK                            x       y       z     vdW  Elec       q    Type
REMARK                         _______ _______ _______ _____ _____    ______ ____
ROOT
ATOM      1  C   UNL     1       3.562   6.444  -8.933  0.00  0.00    +0.126 C 
ENDROOT
BRANCH   1   2
ATOM      2  C   UNL     1       3.377   5.352 -10.179  0.00  0.00    +0.192 C 
ATOM      3  O   UNL     1       3.876   4.191  -9.308  0.00  0.00    -0.217 OA
BRANCH   2   4
ATOM      4  C   UNL     1       4.862   5.670 -10.768  0.00  0.00    +0.011 A 
ATOM      5  C   UNL     1       4.999   5.482 -12.117  0.00  0.00    +0.018 A 
ATOM      6  C   UNL     1       6.305   5.457 -12.597  0.00  0.00    +0.112 A 
ATOM      7  C   UNL     1       7.386   5.482 -11.724  0.00  0.00    +0.211 A 
ATOM      8  O   UNL     1       8.671   5.114 -12.137  0.00  0.00    -0.285 OA
ATOM      9  C   UNL     1       7.144   5.950 -10.438  0.00  0.00    +0.043 A 
ATOM     10  C   UNL     1       5.866   5.871  -9.891  0.00  0.00    +0.002 A 
BRANCH   6  11
ATOM     11  N   UNL     1       6.557   5.358 -13.985  0.00  0.00    -0.168 NA
ATOM     12  C   UNL     1       6.952   6.532 -14.675  0.00  0.00    +0.325 C 
ATOM     13  O   UNL     1       6.321   7.585 -14.459  0.00  0.00    -0.263 OA
ENDBRANCH   6  11
ENDBRANCH   2   4
ENDBRANCH   1   2
BRANCH   1  14
ATOM     14  N   UNL     1       2.217   7.022  -8.956  0.00  0.00    -0.216 NA
BRANCH  14  15
ATOM     15  C   UNL     1       1.853   7.214  -7.429  0.00  0.00    +0.077 C 
ATOM     16  C   UNL     1       3.312   6.612  -6.946  0.00  0.00    +0.019 C 
BRANCH  15  17
ATOM     17  C   UNL     1       1.138   5.729  -7.351  0.00  0.00    +0.044 C 
BRANCH  17  21
ATOM     18  C   UNL     1      -2.007   6.415  -4.724  0.00  0.00    +0.139 A 
ATOM     19  C   UNL     1      -0.903   7.214  -4.619  0.00  0.00    +0.037 A 
ATOM     20  C   UNL     1       0.116   6.943  -5.526  0.00  0.00    -0.001 A 
ATOM     21  C   UNL     1       0.003   5.885  -6.420  0.00  0.00    -0.021 A 
ATOM     22  C   UNL     1      -1.263   5.395  -6.727  0.00  0.00    -0.001 A 
ATOM     23  C   UNL     1      -2.275   5.651  -5.821  0.00  0.00    +0.037 A 
BRANCH  18  25
ATOM     24  C   UNL     1      -3.131   6.518  -3.497  0.00  0.00    +0.252 C 
ATOM     25  O   UNL     1      -2.956   6.506  -3.713  0.00  0.00    -0.471 OA
ENDBRANCH  18  25
ENDBRANCH  17  21
ENDBRANCH  15  17
ENDBRANCH  14  15
ENDBRANCH   1  14
TORSDOF 8
ENDMDL
MODEL 6
REMARK VINA RESULT:      -7.3      3.741      6.082
REMARK  Name = 
REMARK  8 active torsions:
REMARK  status: ('A' for Active; 'I' for Inactive)
REMARK    1  A    between atoms: O_2  and  C_3
REMARK    2  A    between atoms: C_6  and  C_7
REMARK    3  A    between atoms: C_7  and  C_8
REMARK    4  A    between atoms: C_8  and  N_10
REMARK    5  A    between atoms: N_10  and  C_11
REMARK    6  A    between atoms: C_11  and  C_12
REMARK    7  A    between atoms: C_12  and  C_14
REMARK    8  A    between atoms: C_19  and  N_20
REMARK                            x       y       z     vdW  Elec       q    Type
REMARK                         _______ _______ _______ _____ _____    ______ ____
ROOT
ATOM      1  C   UNL     1       2.800   6.056  -5.935  0.00  0.00    +0.126 C 
ENDROOT
BRANCH   1   2
ATOM      2  C   UNL     1       2.046   4.879  -5.028  0.00  0.00    +0.192 C 
ATOM      3  O   UNL     1       2.176   3.848  -6.157  0.00  0.00    -0.217 OA
BRANCH   2   4
ATOM      4  C   UNL     1       0.566   5.359  -5.511  0.00  0.00    +0.011 A 
ATOM      5  C   UNL     1      -0.233   5.853  -4.516  0.00  0.00    +0.018 A 
ATOM      6  C   UNL     1      -1.581   5.992  -4.832  0.00  0.00    +0.112 A 
ATOM      7  C   UNL     1      -2.082   5.520  -6.039  0.00  0.00    +0.211 A 
ATOM      8  O   UNL     1      -3.454   5.329  -6.239  0.00  0.00    -0.285 OA
ATOM      9  C   UNL     1      -1.165   5.306  -7.060  0.00  0.00    +0.043 A 
ATOM     10  C   UNL     1       0.169   5.042  -6.760  0.00  0.00    +0.002 A 
BRANCH   6  11
ATOM     11  N   UNL     1      -2.478   6.576  -3.908  0.00  0.00    -0.168 NA
ATOM     12  C   UNL     1      -2.722   5.888  -2.692  0.00  0.00    +0.325 C 
ATOM     13  O   UNL     1      -2.942   4.662  -2.739  0.00  0.00    -0.263 OA
ENDBRANCH   6  11
ENDBRANCH   2   4
ENDBRANCH   1   2
BRANCH   1  14
ATOM     14  N   UNL     1       3.649   5.184  -6.750  0.00  0.00    -0.216 NA
BRANCH  14  15
ATOM     15  C   UNL     1       4.394   6.177  -7.730  0.00  0.00    +0.077 C 
ATOM     16  C   UNL     1       2.985   6.941  -8.120  0.00  0.00    +0.019 C 
BRANCH  15  17
ATOM     17  C   UNL     1       4.254   5.126  -8.994  0.00  0.00    +0.044 C 
BRANCH  17  21
ATOM     18  C   UNL     1       7.549   5.817 -11.430  0.00  0.00    +0.139 A 
ATOM     19  C   UNL     1       6.315   5.794 -12.018  0.00  0.00    +0.037 A 
ATOM     20  C   UNL     1       5.249   5.564 -11.155  0.00  0.00    -0.001 A 
ATOM     21  C   UNL     1       5.473   5.319  -9.806  0.00  0.00    -0.021 A 
ATOM     22  C   UNL     1       6.668   5.743  -9.234  0.00  0.00    -0.001 A 
ATOM     23  C   UNL     1       7.733   5.959 -10.087  0.00  0.00    +0.037 A 
BRANCH  18  25
ATOM     24  C   UNL     1       8.886   5.826 -12.426  0.00  0.00    +0.252 C 
ATOM     25  O   UNL     1       8.653   5.832 -12.273  0.00  0.00    -0.471 OA
ENDBRANCH  18  25
ENDBRANCH  17  21
ENDBRANCH  15  17
ENDBRANCH  14  15
ENDBRANCH   1  14
TORSDOF 8
ENDMDL
MODEL 7
REMARK VINA RESULT:      -7.3      4.568      7.196
REMARK  Name = 
REMARK  8 active torsions:
REMARK  status: ('A' for Active; 'I' for Inactive)
REMARK    1  A    between atoms: O_2  and  C_3
REMARK    2  A    between atoms: C_6  and  C_7
REMARK    3  A    between atoms: C_7  and  C_8
REMARK    4  A    between atoms: C_8  and  N_10
REMARK    5  A    between atoms: N_10  and  C_11
REMARK    6  A    between atoms: C_11  and  C_12
REMARK    7  A    between atoms: C_12  and  C_14
REMARK    8  A    between atoms: C_19  and  N_20
REMARK                            x       y       z     vdW  Elec       q    Type
REMARK                         _______ _______ _______ _____ _____    ______ ____
ROOT
ATOM      1  C   UNL     1       1.494   6.514  -6.589  0.00  0.00    +0.126 C 
ENDROOT
BRANCH   1   2
ATOM      2  C   UNL     1       2.064   6.633  -5.027  0.00  0.00    +0.192 C 
ATOM      3  O   UNL     1       2.362   5.128  -4.965  0.00  0.00    -0.217 OA
BRANCH   2   4
ATOM      4  C   UNL     1       0.572   6.456  -4.397  0.00  0.00    +0.011 A 
ATOM      5  C   UNL     1       0.543   6.088  -3.079  0.00  0.00    +0.018 A 
ATOM      6  C   UNL     1      -0.686   5.647  -2.599  0.00  0.00    +0.112 A 
ATOM      7  C   UNL     1      -1.764   5.468  -3.457  0.00  0.00    +0.211 A 
ATOM      8  O   UNL     1      -2.881   4.713  -3.083  0.00  0.00    -0.285 OA
ATOM      9  C   UNL     1      -1.710   6.126  -4.679  0.00  0.00    +0.043 A 
ATOM     10  C   UNL     1      -0.481   6.467  -5.238  0.00  0.00    +0.002 A 
BRANCH   6  11
ATOM     11  N   UNL     1      -0.848   5.327  -1.230  0.00  0.00    -0.168 NA
ATOM     12  C   UNL     1      -1.549   6.248  -0.410  0.00  0.00    +0.325 C 
ATOM     13  O   UNL     1      -1.267   7.458  -0.505  0.00  0.00    -0.263 OA
ENDBRANCH   6  11
ENDBRANCH   2   4
ENDBRANCH   1   2
BRANCH   1  14
ATOM     14  N   UNL     1       2.304   7.574  -7.192  0.00  0.00    -0.216 NA
BRANCH  14  15
ATOM     15  C   UNL     1       2.435   7.145  -8.709  0.00  0.00    +0.077 C 
ATOM     16  C   UNL     1       1.041   6.264  -8.639  0.00  0.00    +0.019 C 
BRANCH  15  17
ATOM     17  C   UNL     1       3.361   5.836  -8.319  0.00  0.00    +0.044 C 
BRANCH  17  21
ATOM     18  C   UNL     1       6.705   6.379 -10.727  0.00  0.00    +0.139 A 
ATOM     19  C   UNL     1       5.588   7.115 -11.010  0.00  0.00    +0.037 A 
ATOM     20  C   UNL     1       4.502   6.896 -10.170  0.00  0.00    -0.001 A 
ATOM     21  C   UNL     1       4.570   5.943  -9.162  0.00  0.00    -0.021 A 
ATOM     22  C   UNL     1       5.818   5.542  -8.697  0.00  0.00    -0.001 A 
ATOM     23  C   UNL     1       6.898   5.744  -9.536  0.00  0.00    +0.037 A 
BRANCH  18  25
ATOM     24  C   UNL     1       7.929   6.403 -11.858  0.00  0.00    +0.252 C 
ATOM     25  O   UNL     1       7.736   6.405 -11.657  0.00  0.00    -0.471 OA
ENDBRANCH  18  25
ENDBRANCH  17  21
ENDBRANCH  15  17
ENDBRANCH  14  15
ENDBRANCH   1  14
TORSDOF 8
ENDMDL
MODEL 8
REMARK VINA RESULT:      -7.2      3.699      6.512
REMARK  Name = 
REMARK  8 active torsions:
REMARK  status: ('A' for Active; 'I' for Inactive)
REMARK    1  A    between atoms: O_2  and  C_3
REMARK    2  A    between atoms: C_6  and  C_7
REMARK    3  A    between atoms: C_7  and  C_8
REMARK    4  A    between atoms: C_8  and  N_10
REMARK    5  A    between atoms: N_10  and  C_11
REMARK    6  A    between atoms: C_11  and  C_12
REMARK    7  A    between atoms: C_12  and  C_14
REMARK    8  A    between atoms: C_19  and  N_20
REMARK                            x       y       z     vdW  Elec       q    Type
REMARK                         _______ _______ _______ _____ _____    ______ ____
ROOT
ATOM      1  C   UNL     1       2.837   6.201  -8.847  0.00  0.00    +0.126 C 
ENDROOT
BRANCH   1   2
ATOM      2  C   UNL     1       3.244   5.011  -9.941  0.00  0.00    +0.192 C 
ATOM      3  O   UNL     1       3.702   4.064  -8.822  0.00  0.00    -0.217 OA
BRANCH   2   4
ATOM      4  C   UNL     1       4.737   5.626 -10.157  0.00  0.00    +0.011 A 
ATOM      5  C   UNL     1       4.994   6.083 -11.421  0.00  0.00    +0.018 A 
ATOM      6  C   UNL     1       6.330   6.336 -11.715  0.00  0.00    +0.112 A 
ATOM      7  C   UNL     1       7.334   6.004 -10.813  0.00  0.00    +0.211 A 
ATOM      8  O   UNL     1       8.674   5.921 -11.206  0.00  0.00    -0.285 OA
ATOM      9  C   UNL     1       6.954   5.820  -9.490  0.00  0.00    +0.043 A 
ATOM     10  C   UNL     1       5.649   5.445  -9.181  0.00  0.00    +0.002 A 
BRANCH   6  11
ATOM     11  N   UNL     1       6.697   6.895 -12.961  0.00  0.00    -0.168 NA
ATOM     12  C   UNL     1       6.704   6.045 -14.096  0.00  0.00    +0.325 C 
ATOM     13  O   UNL     1       7.237   4.923 -13.991  0.00  0.00    -0.263 OA
ENDBRANCH   6  11
ENDBRANCH   2   4
ENDBRANCH   1   2
BRANCH   1  14
ATOM     14  N   UNL     1       2.416   5.338  -7.742  0.00  0.00    -0.216 NA
BRANCH  14  15
ATOM     15  C   UNL     1       2.194   6.336  -6.535  0.00  0.00    +0.077 C 
ATOM     16  C   UNL     1       2.185   7.643  -7.543  0.00  0.00    +0.019 C 
BRANCH  15  17
ATOM     17  C   UNL     1       3.818   6.468  -6.270  0.00  0.00    +0.044 C 
BRANCH  17  21
ATOM     18  C   UNL     1       4.380   6.318  -2.155  0.00  0.00    +0.139 A 
ATOM     19  C   UNL     1       4.179   5.138  -2.815  0.00  0.00    +0.037 A 
ATOM     20  C   UNL     1       4.002   5.247  -4.189  0.00  0.00    -0.001 A 
ATOM     21  C   UNL     1       3.977   6.494  -4.801  0.00  0.00    -0.021 A 
ATOM     22  C   UNL     1       4.567   7.574  -4.153  0.00  0.00    -0.001 A 
ATOM     23  C   UNL     1       4.732   7.475  -2.784  0.00  0.00    +0.037 A 
BRANCH  18  25
ATOM     24  C   UNL     1       4.337   6.256  -0.489  0.00  0.00    +0.252 C 
ATOM     25  O   UNL     1       4.351   6.282  -0.766  0.00  0.00    -0.471 OA
ENDBRANCH  18  25
ENDBRANCH  17  21
ENDBRANCH  15  17
ENDBRANCH  14  15
ENDBRANCH   1  14
TORSDOF 8
ENDMDL
MODEL 9
REMARK VINA RESULT:      -7.1      3.118      7.005
REMARK  Name = 
REMARK  8 active torsions:
REMARK  status: ('A' for Active; 'I' for Inactive)
REMARK    1  A    between atoms: O_2  and  C_3
REMARK    2  A    between atoms: C_6  and  C_7
REMARK    3  A    between atoms: C_7  and  C_8
REMARK    4  A    between atoms: C_8  and  N_10
REMARK    5  A    between atoms: N_10  and  C_11
REMARK    6  A    between atoms: C_11  and  C_12
REMARK    7  A    between atoms: C_12  and  C_14
REMARK    8  A    between atoms: C_19  and  N_20
REMARK                            x       y       z     vdW  Elec       q    Type
REMARK                         _______ _______ _______ _____ _____    ______ ____
ROOT
ATOM      1  C   UNL     1       3.043   6.720  -8.916  0.00  0.00    +0.126 C 
ENDROOT
BRANCH   1   2
ATOM      2  C   UNL     1       3.744   5.209  -8.860  0.00  0.00    +0.192 C 
ATOM      3  O   UNL     1       4.214   5.421  -7.415  0.00  0.00    -0.217 OA
BRANCH   2   4
ATOM      4  C   UNL     1       5.141   5.758  -9.493  0.00  0.00    +0.011 A 
ATOM      5  C   UNL     1       5.048   6.224 -10.777  0.00  0.00    +0.018 A 
ATOM      6  C   UNL     1       6.256   6.421 -11.440  0.00  0.00    +0.112 A 
ATOM      7  C   UNL     1       7.458   6.028 -10.863  0.00  0.00    +0.211 A 
ATOM      8  O   UNL     1       8.624   5.890 -11.623  0.00  0.00    -0.285 OA
ATOM      9  C   UNL     1       7.462   5.840  -9.487  0.00  0.00    +0.043 A 
ATOM     10  C   UNL     1       6.283   5.520  -8.818  0.00  0.00    +0.002 A 
BRANCH   6  11
ATOM     11  N   UNL     1       6.278   6.983 -12.737  0.00  0.00    -0.168 NA
ATOM     12  C   UNL     1       5.738   6.219 -13.803  0.00  0.00    +0.325 C 
ATOM     13  O   UNL     1       6.051   5.015 -13.885  0.00  0.00    -0.263 OA
ENDBRANCH   6  11
ENDBRANCH   2   4
ENDBRANCH   1   2
BRANCH   1  14
ATOM     14  N   UNL     1       1.854   6.374  -9.696  0.00  0.00    -0.216 NA
BRANCH  14  15
ATOM     15  C   UNL     1       1.365   5.006  -9.069  0.00  0.00    +0.077 C 
ATOM     16  C   UNL     1       0.786   4.481 -10.522  0.00  0.00    +0.019 C 
BRANCH  15  17
ATOM     17  C   UNL     1      -0.092   5.654  -8.645  0.00  0.00    +0.044 C 
BRANCH  17  21
ATOM     18  C   UNL     1      -0.438   5.415  -4.511  0.00  0.00    +0.139 A 
ATOM     19  C   UNL     1      -1.576   5.639  -5.234  0.00  0.00    +0.037 A 
ATOM     20  C   UNL     1      -1.402   5.705  -6.612  0.00  0.00    -0.001 A 
ATOM     21  C   UNL     1      -0.133   5.604  -7.170  0.00  0.00    -0.021 A 
ATOM     22  C   UNL     1       0.879   4.997  -6.434  0.00  0.00    -0.001 A 
ATOM     23  C   UNL     1       0.717   4.943  -5.062  0.00  0.00    +0.037 A 
BRANCH  18  25
ATOM     24  C   UNL     1      -0.558   5.563  -2.855  0.00  0.00    +0.252 C 
ATOM     25  O   UNL     1      -0.525   5.551  -3.131  0.00  0.00    -0.471 OA
ENDBRANCH  18  25
ENDBRANCH  17  21
ENDBRANCH  15  17
ENDBRANCH  14  15
ENDBRANCH   1  14
TORSDOF 8
ENDMDL
