MODEL 1
REMARK VINA RESULT:      -8.4      0.000      0.000
REMARK  Name = 
REMARK  5 active torsions:
REMARK  status: ('A' for Active; 'I' for Inactive)
REMARK    1  A    between atoms: N_2  and  C_4
REMARK    2  A    between atoms: C_4  and  C_5
REMARK    3  A    between atoms: C_5  and  C_6
REMARK    4  A    between atoms: C_19  and  C_20
REMARK    5  A    between atoms: C_20  and  C_21
REMARK                            x       y       z     vdW  Elec       q    Type
REMARK                         _______ _______ _______ _____ _____    ______ ____
ROOT
ATOM      1  C   UNL     1       2.712   6.113  -4.928  0.00  0.00    -0.025 C 
ATOM      2  C   UNL     1       2.183   6.241  -6.121  0.00  0.00    -0.002 C 
ATOM      3  C   UNL     1       0.724   6.091  -6.187  0.00  0.00    +0.033 A 
ATOM      4  C   UNL     1      -0.007   5.839  -7.342  0.00  0.00    +0.139 A 
ATOM      5  C   UNL     1      -1.234   5.212  -7.209  0.00  0.00    +0.037 A 
ATOM      6  C   UNL     1      -1.831   5.303  -5.956  0.00  0.00    -0.001 A 
ATOM      7  C   UNL     1      -1.276   6.100  -4.961  0.00  0.00    -0.011 A 
ATOM      8  O   UNL     1       0.400   6.062  -8.638  0.00  0.00    -0.471 OA
ATOM      9  C   UNL     1       1.485   6.831  -9.127  0.00  0.00    +0.232 C 
ATOM     10  C   UNL     1       2.790   6.374  -8.559  0.00  0.00    +0.021 A 
ATOM     11  C   UNL     1       3.803   6.439  -9.490  0.00  0.00    -0.001 A 
ATOM     12  C   UNL     1       4.953   5.719  -9.196  0.00  0.00    -0.000 A 
ATOM     13  C   UNL     1       5.215   5.274  -7.906  0.00  0.00    -0.000 A 
ATOM     14  C   UNL     1       4.383   5.718  -6.886  0.00  0.00    -0.000 A 
ATOM     15  C   UNL     1       0.111   6.191  -4.943  0.00  0.00    -0.001 A 
ATOM     16  C   UNL     1       3.153   6.270  -7.222  0.00  0.00    -0.001 A 
ENDROOT
BRANCH   1  17
ATOM     17  C   UNL     1       1.845   6.281  -3.724  0.00  0.00    +0.043 C 
BRANCH  17  18
ATOM     18  C   UNL     1       2.640   6.504  -2.469  0.00  0.00    +0.077 C 
BRANCH  18  20
ATOM     19  C   UNL     1       3.369   4.592  -1.192  0.00  0.00    +0.090 C 
ATOM     20  N   UNL     1       2.341   5.571  -1.418  0.00  0.00    -0.270 NA
ATOM     21  C   UNL     1       1.016   5.018  -1.482  0.00  0.00    +0.090 C 
ENDBRANCH  18  20
ENDBRANCH  17  18
ENDBRANCH   1  17
BRANCH   7  22
ATOM     22  C   UNL     1      -2.131   6.857  -3.991  0.00  0.00    +0.140 C 
BRANCH  22  23
ATOM     23  C   UNL     1      -3.000   5.893  -3.246  0.00  0.00    +0.369 C 
ATOM     24  O   UNL     1      -4.119   6.439  -2.610  0.00  0.00    -0.245 OA
ATOM     25  O   UNL     1      -2.465   4.911  -2.646  0.00  0.00    -0.245 OA
ENDBRANCH  22  23
ENDBRANCH   7  22
TORSDOF 5
ENDMDL
MODEL 2
REMARK VINA RESULT:      -8.4      4.082      8.665
REMARK  Name = 
REMARK  5 active torsions:
REMARK  status: ('A' for Active; 'I' for Inactive)
REMARK    1  A    between atoms: N_2  and  C_4
REMARK    2  A    between atoms: C_4  and  C_5
REMARK    3  A    between atoms: C_5  and  C_6
REMARK    4  A    between atoms: C_19  and  C_20
REMARK    5  A    between atoms: C_20  and  C_21
REMARK                            x       y       z     vdW  Elec       q    Type
REMARK                         _______ _______ _______ _____ _____    ______ ____
ROOT
ATOM      1  C   UNL     1       1.470   5.930 -10.301  0.00  0.00    -0.025 C 
ATOM      2  C   UNL     1       2.004   6.166  -9.128  0.00  0.00    -0.002 C 
ATOM      3  C   UNL     1       3.468   6.062  -9.065  0.00  0.00    +0.033 A 
ATOM      4  C   UNL     1       4.215   5.922  -7.901  0.00  0.00    +0.139 A 
ATOM      5  C   UNL     1       5.457   5.320  -7.996  0.00  0.00    +0.037 A 
ATOM      6  C   UNL     1       6.041   5.327  -9.258  0.00  0.00    -0.001 A 
ATOM      7  C   UNL     1       5.457   6.027 -10.308  0.00  0.00    -0.011 A 
ATOM      8  O   UNL     1       3.812   6.236  -6.623  0.00  0.00    -0.471 OA
ATOM      9  C   UNL     1       2.710   7.012  -6.186  0.00  0.00    +0.232 C 
ATOM     10  C   UNL     1       1.413   6.476  -6.702  0.00  0.00    +0.021 A 
ATOM     11  C   UNL     1       0.407   6.589  -5.769  0.00  0.00    -0.001 A 
ATOM     12  C   UNL     1      -0.725   5.816  -5.993  0.00  0.00    -0.000 A 
ATOM     13  C   UNL     1      -0.985   5.263  -7.241  0.00  0.00    -0.000 A 
ATOM     14  C   UNL     1      -0.174   5.646  -8.302  0.00  0.00    -0.000 A 
ATOM     15  C   UNL     1       4.067   6.079 -10.319  0.00  0.00    -0.001 A 
ATOM     16  C   UNL     1       1.043   6.257  -8.023  0.00  0.00    -0.001 A 
ENDROOT
BRANCH   1  17
ATOM     17  C   UNL     1       2.322   6.024 -11.523  0.00  0.00    +0.043 C 
BRANCH  17  18
ATOM     18  C   UNL     1       1.520   6.288 -12.766  0.00  0.00    +0.077 C 
BRANCH  18  20
ATOM     19  C   UNL     1       0.992   4.308 -14.038  0.00  0.00    +0.090 C 
ATOM     20  N   UNL     1       1.864   5.439 -13.872  0.00  0.00    -0.270 NA
ATOM     21  C   UNL     1       3.262   5.112 -13.949  0.00  0.00    +0.090 C 
ENDBRANCH  18  20
ENDBRANCH  17  18
ENDBRANCH   1  17
BRANCH   7  22
ATOM     22  C   UNL     1       6.282   6.727 -11.343  0.00  0.00    +0.140 C 
BRANCH  22  23
ATOM     23  C   UNL     1       7.202   5.739 -11.989  0.00  0.00    +0.369 C 
ATOM     24  O   UNL     1       8.496   6.192 -12.264  0.00  0.00    -0.245 OA
ATOM     25  O   UNL     1       6.732   4.908 -12.825  0.00  0.00    -0.245 OA
ENDBRANCH  22  23
ENDBRANCH   7  22
TORSDOF 5
ENDMDL
MODEL 3
REMARK VINA RESULT:      -8.1      3.254      5.912
REMARK  Name = 
REMARK  5 active torsions:
REMARK  status: ('A' for Active; 'I' for Inactive)
REMARK    1  A    between atoms: N_2  and  C_4
REMARK    2  A    between atoms: C_4  and  C_5
REMARK    3  A    between atoms: C_5  and  C_6
REMARK    4  A    between atoms: C_19  and  C_20
REMARK    5  A    between atoms: C_20  and  C_21
REMARK                            x       y       z     vdW  Elec       q    Type
REMARK                         _______ _______ _______ _____ _____    ______ ____
ROOT
ATOM      1  C   UNL     1       2.373   6.593 -10.611  0.00  0.00    -0.025 C 
ATOM      2  C   UNL     1       3.180   6.219  -9.648  0.00  0.00    -0.002 C 
ATOM      3  C   UNL     1       2.570   6.112  -8.317  0.00  0.00    +0.033 A 
ATOM      4  C   UNL     1       3.266   6.079  -7.114  0.00  0.00    +0.139 A 
ATOM      5  C   UNL     1       2.609   6.504  -5.972  0.00  0.00    +0.037 A 
ATOM      6  C   UNL     1       1.219   6.485  -6.028  0.00  0.00    -0.001 A 
ATOM      7  C   UNL     1       0.559   5.934  -7.121  0.00  0.00    -0.011 A 
ATOM      8  O   UNL     1       4.592   5.754  -6.940  0.00  0.00    -0.471 OA
ATOM      9  C   UNL     1       5.493   5.119  -7.830  0.00  0.00    +0.232 C 
ATOM     10  C   UNL     1       5.614   5.861  -9.122  0.00  0.00    +0.021 A 
ATOM     11  C   UNL     1       6.904   5.840  -9.604  0.00  0.00    -0.001 A 
ATOM     12  C   UNL     1       7.206   6.776 -10.584  0.00  0.00    -0.000 A 
ATOM     13  C   UNL     1       6.204   7.429 -11.292  0.00  0.00    -0.000 A 
ATOM     14  C   UNL     1       4.896   6.995 -11.114  0.00  0.00    -0.000 A 
ATOM     15  C   UNL     1       1.181   6.080  -8.357  0.00  0.00    -0.001 A 
ATOM     16  C   UNL     1       4.602   6.203 -10.010  0.00  0.00    -0.001 A 
ENDROOT
BRANCH   1  17
ATOM     17  C   UNL     1       0.899   6.447 -10.426  0.00  0.00    +0.043 C 
BRANCH  17  18
ATOM     18  C   UNL     1       0.176   6.219 -11.723  0.00  0.00    +0.077 C 
BRANCH  18  20
ATOM     19  C   UNL     1       0.593   7.753 -13.537  0.00  0.00    +0.090 C 
ATOM     20  N   UNL     1       0.959   6.524 -12.888  0.00  0.00    -0.270 NA
ATOM     21  C   UNL     1       1.126   5.417 -13.790  0.00  0.00    +0.090 C 
ENDBRANCH  18  20
ENDBRANCH  17  18
ENDBRANCH   1  17
BRANCH   7  22
ATOM     22  C   UNL     1      -0.727   5.183  -6.967  0.00  0.00    +0.140 C 
BRANCH  22  23
ATOM     23  C   UNL     1      -1.612   5.916  -6.009  0.00  0.00    +0.369 C 
ATOM     24  O   UNL     1      -1.566   5.488  -4.678  0.00  0.00    -0.245 OA
ATOM     25  O   UNL     1      -2.746   6.329  -6.402  0.00  0.00    -0.245 OA
ENDBRANCH  22  23
ENDBRANCH   7  22
TORSDOF 5
ENDMDL
MODEL 4
REMARK VINA RESULT:      -7.9      1.578      2.238
REMARK  Name = 
REMARK  5 active torsions:
REMARK  status: ('A' for Active; 'I' for Inactive)
REMARK    1  A    between atoms: N_2  and  C_4
REMARK    2  A    between atoms: C_4  and  C_5
REMARK    3  A    between atoms: C_5  and  C_6
REMARK    4  A    between atoms: C_19  and  C_20
REMARK    5  A    between atoms: C_20  and  C_21
REMARK                            x       y       z     vdW  Elec       q    Type
REMARK                         _______ _______ _______ _____ _____    ______ ____
ROOT
ATOM      1  C   UNL     1       3.553   6.680  -7.039  0.00  0.00    -0.025 C 
ATOM      2  C   UNL     1       2.648   6.551  -7.978  0.00  0.00    -0.002 C 
ATOM      3  C   UNL     1       1.277   6.310  -7.509  0.00  0.00    +0.033 A 
ATOM      4  C   UNL     1       0.239   5.805  -8.283  0.00  0.00    +0.139 A 
ATOM      5  C   UNL     1      -0.792   5.147  -7.636  0.00  0.00    +0.037 A 
ATOM      6  C   UNL     1      -0.945   5.439  -6.284  0.00  0.00    -0.001 A 
ATOM      7  C   UNL     1      -0.189   6.438  -5.683  0.00  0.00    -0.011 A 
ATOM      8  O   UNL     1       0.165   5.803  -9.658  0.00  0.00    -0.471 OA
ATOM      9  C   UNL     1       0.928   6.525 -10.607  0.00  0.00    +0.232 C 
ATOM     10  C   UNL     1       2.391   6.256 -10.464  0.00  0.00    +0.021 A 
ATOM     11  C   UNL     1       3.023   6.202 -11.687  0.00  0.00    -0.001 A 
ATOM     12  C   UNL     1       4.281   5.614 -11.700  0.00  0.00    -0.000 A 
ATOM     13  C   UNL     1       5.007   5.435 -10.529  0.00  0.00    -0.000 A 
ATOM     14  C   UNL     1       4.514   6.016  -9.367  0.00  0.00    -0.000 A 
ATOM     15  C   UNL     1       1.105   6.608  -6.162  0.00  0.00    -0.001 A 
ATOM     16  C   UNL     1       3.187   6.427  -9.338  0.00  0.00    -0.001 A 
ENDROOT
BRANCH   1  17
ATOM     17  C   UNL     1       3.122   7.022  -5.652  0.00  0.00    +0.043 C 
BRANCH  17  18
ATOM     18  C   UNL     1       4.281   7.341  -4.751  0.00  0.00    +0.077 C 
BRANCH  18  20
ATOM     19  C   UNL     1       3.134   5.901  -3.193  0.00  0.00    +0.090 C 
ATOM     20  N   UNL     1       4.067   6.979  -3.377  0.00  0.00    -0.270 NA
ATOM     21  C   UNL     1       3.845   8.097  -2.502  0.00  0.00    +0.090 C 
ENDBRANCH  18  20
ENDBRANCH  17  18
ENDBRANCH   1  17
BRANCH   7  22
ATOM     22  C   UNL     1      -0.756   7.316  -4.609  0.00  0.00    +0.140 C 
BRANCH  22  23
ATOM     23  C   UNL     1      -2.240   7.132  -4.557  0.00  0.00    +0.369 C 
ATOM     24  O   UNL     1      -2.992   7.966  -5.390  0.00  0.00    -0.245 OA
ATOM     25  O   UNL     1      -2.790   6.835  -3.453  0.00  0.00    -0.245 OA
ENDBRANCH  22  23
ENDBRANCH   7  22
TORSDOF 5
ENDMDL
MODEL 5
REMARK VINA RESULT:      -7.8      2.516      6.194
REMARK  Name = 
REMARK  5 active torsions:
REMARK  status: ('A' for Active; 'I' for Inactive)
REMARK    1  A    between atoms: N_2  and  C_4
REMARK    2  A    between atoms: C_4  and  C_5
REMARK    3  A    between atoms: C_5  and  C_6
REMARK    4  A    between atoms: C_19  and  C_20
REMARK    5  A    between atoms: C_20  and  C_21
REMARK                            x       y       z     vdW  Elec       q    Type
REMARK                         _______ _______ _______ _____ _____    ______ ____
ROOT
ATOM      1  C   UNL     1       2.237   7.015  -5.398  0.00  0.00    -0.025 C 
ATOM      2  C   UNL     1       1.411   6.495  -6.273  0.00  0.00    -0.002 C 
ATOM      3  C   UNL     1       1.965   6.276  -7.615  0.00  0.00    +0.033 A 
ATOM      4  C   UNL     1       1.218   6.075  -8.770  0.00  0.00    +0.139 A 
ATOM      5  C   UNL     1       1.795   6.408  -9.983  0.00  0.00    +0.037 A 
ATOM      6  C   UNL     1       3.185   6.471  -9.997  0.00  0.00    -0.001 A 
ATOM      7  C   UNL     1       3.926   6.079  -8.888  0.00  0.00    -0.011 A 
ATOM      8  O   UNL     1      -0.094   5.662  -8.840  0.00  0.00    -0.471 OA
ATOM      9  C   UNL     1      -0.913   5.079  -7.842  0.00  0.00    +0.232 C 
ATOM     10  C   UNL     1      -1.019   5.949  -6.632  0.00  0.00    +0.021 A 
ATOM     11  C   UNL     1      -2.282   5.911  -6.084  0.00  0.00    -0.001 A 
ATOM     12  C   UNL     1      -2.594   6.931  -5.194  0.00  0.00    -0.000 A 
ATOM     13  C   UNL     1      -1.602   7.710  -4.613  0.00  0.00    -0.000 A 
ATOM     14  C   UNL     1      -0.280   7.331  -4.811  0.00  0.00    -0.000 A 
ATOM     15  C   UNL     1       3.353   6.324  -7.644  0.00  0.00    -0.001 A 
ATOM     16  C   UNL     1       0.010   6.441  -5.838  0.00  0.00    -0.001 A 
ENDROOT
BRANCH   1  17
ATOM     17  C   UNL     1       3.707   6.930  -5.642  0.00  0.00    +0.043 C 
BRANCH  17  18
ATOM     18  C   UNL     1       4.514   7.420  -4.473  0.00  0.00    +0.077 C 
BRANCH  18  20
ATOM     19  C   UNL     1       4.883   5.063  -4.121  0.00  0.00    +0.090 C 
ATOM     20  N   UNL     1       4.896   6.384  -3.555  0.00  0.00    -0.270 NA
ATOM     21  C   UNL     1       4.257   6.472  -2.270  0.00  0.00    +0.090 C 
ENDBRANCH  18  20
ENDBRANCH  17  18
ENDBRANCH   1  17
BRANCH   7  22
ATOM     22  C   UNL     1       5.247   5.387  -9.027  0.00  0.00    +0.140 C 
BRANCH  22  23
ATOM     23  C   UNL     1       5.878   5.791 -10.322  0.00  0.00    +0.369 C 
ATOM     24  O   UNL     1       6.262   7.131 -10.428  0.00  0.00    -0.245 OA
ATOM     25  O   UNL     1       5.475   5.259 -11.402  0.00  0.00    -0.245 OA
ENDBRANCH  22  23
ENDBRANCH   7  22
TORSDOF 5
ENDMDL
MODEL 6
REMARK VINA RESULT:      -7.8      3.733      7.940
REMARK  Name = 
REMARK  5 active torsions:
REMARK  status: ('A' for Active; 'I' for Inactive)
REMARK    1  A    between atoms: N_2  and  C_4
REMARK    2  A    between atoms: C_4  and  C_5
REMARK    3  A    between atoms: C_5  and  C_6
REMARK    4  A    between atoms: C_19  and  C_20
REMARK    5  A    between atoms: C_20  and  C_21
REMARK                            x       y       z     vdW  Elec       q    Type
REMARK                         _______ _______ _______ _____ _____    ______ ____
ROOT
ATOM      1  C   UNL     1       4.124   6.302  -9.018  0.00  0.00    -0.025 C 
ATOM      2  C   UNL     1       2.830   6.094  -9.000  0.00  0.00    -0.002 C 
ATOM      3  C   UNL     1       2.157   6.175 -10.303  0.00  0.00    +0.033 A 
ATOM      4  C   UNL     1       0.790   6.339 -10.492  0.00  0.00    +0.139 A 
ATOM      5  C   UNL     1       0.363   6.917 -11.675  0.00  0.00    +0.037 A 
ATOM      6  C   UNL     1       1.260   6.861 -12.737  0.00  0.00    -0.001 A 
ATOM      7  C   UNL     1       2.443   6.138 -12.631  0.00  0.00    -0.011 A 
ATOM      8  O   UNL     1      -0.205   6.071  -9.578  0.00  0.00    -0.471 OA
ATOM      9  C   UNL     1      -0.152   5.328  -8.374  0.00  0.00    +0.232 C 
ATOM     10  C   UNL     1       0.875   5.869  -7.432  0.00  0.00    +0.021 A 
ATOM     11  C   UNL     1       0.453   5.803  -6.123  0.00  0.00    -0.001 A 
ATOM     12  C   UNL     1       1.151   6.587  -5.214  0.00  0.00    -0.000 A 
ATOM     13  C   UNL     1       2.404   7.105  -5.520  0.00  0.00    -0.000 A 
ATOM     14  C   UNL     1       3.013   6.675  -6.693  0.00  0.00    -0.000 A 
ATOM     15  C   UNL     1       3.039   6.109 -11.375  0.00  0.00    -0.001 A 
ATOM     16  C   UNL     1       2.234   6.053  -7.660  0.00  0.00    -0.001 A 
ENDROOT
BRANCH   1  17
ATOM     17  C   UNL     1       4.869   6.155 -10.303  0.00  0.00    +0.043 C 
BRANCH  17  18
ATOM     18  C   UNL     1       6.345   5.969 -10.095  0.00  0.00    +0.077 C 
BRANCH  18  20
ATOM     19  C   UNL     1       6.431   7.960 -11.453  0.00  0.00    +0.090 C 
ATOM     20  N   UNL     1       7.160   6.873 -10.859  0.00  0.00    -0.270 NA
ATOM     21  C   UNL     1       8.073   6.224 -11.759  0.00  0.00    +0.090 C 
ENDBRANCH  18  20
ENDBRANCH  17  18
ENDBRANCH   1  17
BRANCH   7  22
ATOM     22  C   UNL     1       3.017   5.392 -13.796  0.00  0.00    +0.140 C 
BRANCH  22  23
ATOM     23  C   UNL     1       4.495   5.622 -13.846  0.00  0.00    +0.369 C 
ATOM     24  O   UNL     1       4.952   6.460 -14.868  0.00  0.00    -0.245 OA
ATOM     25  O   UNL     1       5.281   4.678 -13.531  0.00  0.00    -0.245 OA
ENDBRANCH  22  23
ENDBRANCH   7  22
TORSDOF 5
ENDMDL
MODEL 7
REMARK VINA RESULT:      -7.6      3.646      7.539
REMARK  Name = 
REMARK  5 active torsions:
REMARK  status: ('A' for Active; 'I' for Inactive)
REMARK    1  A    between atoms: N_2  and  C_4
REMARK    2  A    between atoms: C_4  and  C_5
REMARK    3  A    between atoms: C_5  and  C_6
REMARK    4  A    between atoms: C_19  and  C_20
REMARK    5  A    between atoms: C_20  and  C_21
REMARK                            x       y       z     vdW  Elec       q    Type
REMARK                         _______ _______ _______ _____ _____    ______ ____
ROOT
ATOM      1  C   UNL     1       4.219   6.133  -9.102  0.00  0.00    -0.025 C 
ATOM      2  C   UNL     1       2.955   5.945  -8.811  0.00  0.00    -0.002 C 
ATOM      3  C   UNL     1       2.020   6.070  -9.937  0.00  0.00    +0.033 A 
ATOM      4  C   UNL     1       0.648   6.260  -9.826  0.00  0.00    +0.139 A 
ATOM      5  C   UNL     1      -0.010   6.875 -10.876  0.00  0.00    +0.037 A 
ATOM      6  C   UNL     1       0.636   6.831 -12.107  0.00  0.00    -0.001 A 
ATOM      7  C   UNL     1       1.799   6.087 -12.273  0.00  0.00    -0.011 A 
ATOM      8  O   UNL     1      -0.134   5.986  -8.725  0.00  0.00    -0.471 OA
ATOM      9  C   UNL     1       0.161   5.212  -7.576  0.00  0.00    +0.232 C 
ATOM     10  C   UNL     1       1.377   5.713  -6.865  0.00  0.00    +0.021 A 
ATOM     11  C   UNL     1       1.244   5.621  -5.498  0.00  0.00    -0.001 A 
ATOM     12  C   UNL     1       2.137   6.371  -4.744  0.00  0.00    -0.000 A 
ATOM     13  C   UNL     1       3.305   6.876  -5.301  0.00  0.00    -0.000 A 
ATOM     14  C   UNL     1       3.640   6.466  -6.586  0.00  0.00    -0.000 A 
ATOM     15  C   UNL     1       2.650   6.017 -11.175  0.00  0.00    -0.001 A 
ATOM     16  C   UNL     1       2.658   5.881  -7.376  0.00  0.00    -0.001 A 
ENDROOT
BRANCH   1  17
ATOM     17  C   UNL     1       4.668   6.006 -10.521  0.00  0.00    +0.043 C 
BRANCH  17  18
ATOM     18  C   UNL     1       6.144   5.750 -10.637  0.00  0.00    +0.077 C 
BRANCH  18  20
ATOM     19  C   UNL     1       8.170   6.224 -11.855  0.00  0.00    +0.090 C 
ATOM     20  N   UNL     1       6.808   6.597 -11.588  0.00  0.00    -0.270 NA
ATOM     21  C   UNL     1       6.626   8.003 -11.350  0.00  0.00    +0.090 C 
ENDBRANCH  18  20
ENDBRANCH  17  18
ENDBRANCH   1  17
BRANCH   7  22
ATOM     22  C   UNL     1       2.095   5.361 -13.549  0.00  0.00    +0.140 C 
BRANCH  22  23
ATOM     23  C   UNL     1       0.822   5.173 -14.313  0.00  0.00    +0.369 C 
ATOM     24  O   UNL     1       0.306   3.873 -14.338  0.00  0.00    -0.245 OA
ATOM     25  O   UNL     1       0.624   5.851 -15.367  0.00  0.00    -0.245 OA
ENDBRANCH  22  23
ENDBRANCH   7  22
TORSDOF 5
ENDMDL
MODEL 8
REMARK VINA RESULT:      -7.6      3.888      6.307
REMARK  Name = 
REMARK  5 active torsions:
REMARK  status: ('A' for Active; 'I' for Inactive)
REMARK    1  A    between atoms: N_2  and  C_4
REMARK    2  A    between atoms: C_4  and  C_5
REMARK    3  A    between atoms: C_5  and  C_6
REMARK    4  A    between atoms: C_19  and  C_20
REMARK    5  A    between atoms: C_20  and  C_21
REMARK                            x       y       z     vdW  Elec       q    Type
REMARK                         _______ _______ _______ _____ _____    ______ ____
ROOT
ATOM      1  C   UNL     1       4.669   5.628 -10.139  0.00  0.00    -0.025 C 
ATOM      2  C   UNL     1       3.403   5.858  -9.891  0.00  0.00    -0.002 C 
ATOM      3  C   UNL     1       2.963   5.567  -8.520  0.00  0.00    +0.033 A 
ATOM      4  C   UNL     1       1.643   5.397  -8.119  0.00  0.00    +0.139 A 
ATOM      5  C   UNL     1       1.401   4.632  -6.991  0.00  0.00    +0.037 A 
ATOM      6  C   UNL     1       2.470   4.491  -6.112  0.00  0.00    -0.001 A 
ATOM      7  C   UNL     1       3.649   5.201  -6.307  0.00  0.00    -0.011 A 
ATOM      8  O   UNL     1       0.519   5.833  -8.783  0.00  0.00    -0.471 OA
ATOM      9  C   UNL     1       0.397   6.770  -9.838  0.00  0.00    +0.232 C 
ATOM     10  C   UNL     1       1.219   6.380 -11.025  0.00  0.00    +0.021 A 
ATOM     11  C   UNL     1       0.580   6.677 -12.208  0.00  0.00    -0.001 A 
ATOM     12  C   UNL     1       1.072   6.047 -13.344  0.00  0.00    -0.000 A 
ATOM     13  C   UNL     1       2.333   5.463 -13.357  0.00  0.00    -0.000 A 
ATOM     14  C   UNL     1       3.156   5.676 -12.257  0.00  0.00    -0.000 A 
ATOM     15  C   UNL     1       4.020   5.434  -7.627  0.00  0.00    -0.001 A 
ATOM     16  C   UNL     1       2.586   6.137 -11.077  0.00  0.00    -0.001 A 
ENDROOT
BRANCH   1  17
ATOM     17  C   UNL     1       5.632   5.540  -9.001  0.00  0.00    +0.043 C 
BRANCH  17  18
ATOM     18  C   UNL     1       7.054   5.761  -9.432  0.00  0.00    +0.077 C 
BRANCH  18  20
ATOM     19  C   UNL     1       8.167   5.447 -11.549  0.00  0.00    +0.090 C 
ATOM     20  N   UNL     1       7.190   6.186 -10.797  0.00  0.00    -0.270 NA
ATOM     21  C   UNL     1       7.285   7.611 -10.962  0.00  0.00    +0.090 C 
ENDBRANCH  18  20
ENDBRANCH  17  18
ENDBRANCH   1  17
BRANCH   7  22
ATOM     22  C   UNL     1       4.451   5.727  -5.157  0.00  0.00    +0.140 C 
BRANCH  22  23
ATOM     23  C   UNL     1       3.954   7.091  -4.794  0.00  0.00    +0.369 C 
ATOM     24  O   UNL     1       4.933   8.054  -4.536  0.00  0.00    -0.245 OA
ATOM     25  O   UNL     1       2.894   7.201  -4.105  0.00  0.00    -0.245 OA
ENDBRANCH  22  23
ENDBRANCH   7  22
TORSDOF 5
ENDMDL
MODEL 9
REMARK VINA RESULT:      -7.5      4.183      6.899
REMARK  Name = 
REMARK  5 active torsions:
REMARK  status: ('A' for Active; 'I' for Inactive)
REMARK    1  A    between atoms: N_2  and  C_4
REMARK    2  A    between atoms: C_4  and  C_5
REMARK    3  A    between atoms: C_5  and  C_6
REMARK    4  A    between atoms: C_19  and  C_20
REMARK    5  A    between atoms: C_20  and  C_21
REMARK                            x       y       z     vdW  Elec       q    Type
REMARK                         _______ _______ _______ _____ _____    ______ ____
ROOT
ATOM      1  C   UNL     1       4.379   6.493 -10.028  0.00  0.00    -0.025 C 
ATOM      2  C   UNL     1       4.848   6.348 -11.243  0.00  0.00    -0.002 C 
ATOM      3  C   UNL     1       3.851   6.036 -12.275  0.00  0.00    +0.033 A 
ATOM      4  C   UNL     1       4.130   5.505 -13.529  0.00  0.00    +0.139 A 
ATOM      5  C   UNL     1       3.134   4.787 -14.166  0.00  0.00    +0.037 A 
ATOM      6  C   UNL     1       1.835   5.038 -13.738  0.00  0.00    -0.001 A 
ATOM      7  C   UNL     1       1.571   6.054 -12.826  0.00  0.00    -0.011 A 
ATOM      8  O   UNL     1       5.342   5.533 -14.183  0.00  0.00    -0.471 OA
ATOM      9  C   UNL     1       6.495   6.312 -13.918  0.00  0.00    +0.232 C 
ATOM     10  C   UNL     1       6.999   6.104 -12.526  0.00  0.00    +0.021 A 
ATOM     11  C   UNL     1       8.375   6.108 -12.475  0.00  0.00    -0.001 A 
ATOM     12  C   UNL     1       8.946   5.576 -11.326  0.00  0.00    -0.000 A 
ATOM     13  C   UNL     1       8.203   5.400 -10.166  0.00  0.00    -0.000 A 
ATOM     14  C   UNL     1       6.919   5.930 -10.132  0.00  0.00    -0.000 A 
ATOM     15  C   UNL     1       2.548   6.293 -11.866  0.00  0.00    -0.001 A 
ATOM     16  C   UNL     1       6.311   6.281 -11.332  0.00  0.00    -0.001 A 
ENDROOT
BRANCH   1  17
ATOM     17  C   UNL     1       2.926   6.781  -9.837  0.00  0.00    +0.043 C 
BRANCH  17  18
ATOM     18  C   UNL     1       2.617   7.290  -8.457  0.00  0.00    +0.077 C 
BRANCH  18  20
ATOM     19  C   UNL     1       2.119   5.224  -7.316  0.00  0.00    +0.090 C 
ATOM     20  N   UNL     1       2.973   6.376  -7.407  0.00  0.00    -0.270 NA
ATOM     21  C   UNL     1       3.235   7.008  -6.142  0.00  0.00    +0.090 C 
ENDBRANCH  18  20
ENDBRANCH  17  18
ENDBRANCH   1  17
BRANCH   7  22
ATOM     22  C   UNL     1       0.323   6.879 -12.906  0.00  0.00    +0.140 C 
BRANCH  22  23
ATOM     23  C   UNL     1      -0.150   7.189 -11.521  0.00  0.00    +0.369 C 
ATOM     24  O   UNL     1      -0.483   6.089 -10.724  0.00  0.00    -0.245 OA
ATOM     25  O   UNL     1      -0.848   8.230 -11.322  0.00  0.00    -0.245 OA
ENDBRANCH  22  23
ENDBRANCH   7  22
TORSDOF 5
ENDMDL
