MODEL 1
REMARK VINA RESULT:      -8.4      0.000      0.000
REMARK  Name = 
REMARK  11 active torsions:
REMARK  status: ('A' for Active; 'I' for Inactive)
REMARK    1  A    between atoms: C_2  and  C_3
REMARK    2  A    between atoms: C_3  and  C_4
REMARK    3  A    between atoms: C_4  and  C_5
REMARK    4  A    between atoms: C_5  and  C_6
REMARK    5  A    between atoms: C_6  and  C_7
REMARK    6  A    between atoms: C_7  and  C_8
REMARK    7  A    between atoms: N_10  and  C_11
REMARK    8  A    between atoms: C_11  and  C_12
REMARK    9  A    between atoms: C_11  and  C_18
REMARK   10  A    between atoms: C_12  and  N_13
REMARK   11  A    between atoms: C_18  and  C_20
REMARK                            x       y       z     vdW  Elec       q    Type
REMARK                         _______ _______ _______ _____ _____    ______ ____
ROOT
ATOM      1  C   UNL     1       1.942   5.580  -7.038  0.00  0.00    +0.146 C 
ENDROOT
BRANCH   1   3
ATOM      2  C   UNL     1       4.046   4.918  -8.281  0.00  0.00    +0.241 C 
ATOM      3  N   UNL     1       3.513   5.527  -7.126  0.00  0.00    -0.203 NA
ATOM      4  O   UNL     1       3.428   3.919  -8.712  0.00  0.00    -0.273 OA
BRANCH   2   5
ATOM      5  C   UNL     1       5.521   4.986  -8.490  0.00  0.00    +0.087 C 
BRANCH   5   6
ATOM      6  C   UNL     1       5.848   5.750  -9.767  0.00  0.00    +0.010 C 
BRANCH   6   7
ATOM      7  C   UNL     1       7.328   6.096  -9.678  0.00  0.00    +0.001 C 
BRANCH   7   8
ATOM      8  C   UNL     1       7.717   6.770 -10.990  0.00  0.00    +0.000 C 
BRANCH   8   9
ATOM      9  C   UNL     1       8.485   5.724 -11.785  0.00  0.00    +0.000 C 
BRANCH   9  11
ATOM     10  C   UNL     1       7.246   5.559 -13.395  0.00  0.00    +0.000 C 
ATOM     11  C   UNL     1       7.780   5.558 -13.124  0.00  0.00    +0.000 C 
ENDBRANCH   9  11
ENDBRANCH   8   9
ENDBRANCH   7   8
ENDBRANCH   6   7
ENDBRANCH   5   6
ENDBRANCH   2   5
ENDBRANCH   1   3
BRANCH   1  12
ATOM     12  C   UNL     1       2.006   6.710  -5.703  0.00  0.00    +0.195 C 
ATOM     13  O   UNL     1       2.690   5.690  -4.778  0.00  0.00    -0.216 OA
BRANCH  12  14
ATOM     14  C   UNL     1       0.503   6.316  -5.197  0.00  0.00    +0.013 A 
ATOM     15  C   UNL     1       0.379   5.608  -4.060  0.00  0.00    +0.038 A 
ATOM     16  C   UNL     1      -0.840   5.658  -3.377  0.00  0.00    +0.172 A 
ATOM     17  O   UNL     1      -0.964   5.064  -2.117  0.00  0.00    -0.468 OA
ATOM     18  C   UNL     1      -1.391   5.722  -0.958  0.00  0.00    +0.253 C 
ATOM     19  C   UNL     1      -2.312   6.875  -1.193  0.00  0.00    +0.253 C 
ATOM     20  O   UNL     1      -2.195   7.469  -2.455  0.00  0.00    -0.468 OA
ATOM     21  C   UNL     1      -1.565   6.835  -3.526  0.00  0.00    +0.172 A 
ATOM     22  C   UNL     1      -1.447   7.562  -4.703  0.00  0.00    +0.040 A 
ATOM     23  C   UNL     1      -0.418   7.283  -5.583  0.00  0.00    +0.002 A 
ENDBRANCH  12  14
ENDBRANCH   1  12
BRANCH   1  24
ATOM     24  C   UNL     1       1.872   6.820  -8.112  0.00  0.00    +0.097 C 
BRANCH  24  25
ATOM     25  N   UNL     1       1.053   6.466  -9.183  0.00  0.00    -0.271 NA
ATOM     26  C   UNL     1       1.595   6.523 -10.498  0.00  0.00    +0.072 C 
ATOM     27  C   UNL     1       0.593   5.807 -11.382  0.00  0.00    +0.019 C 
ATOM     28  C   UNL     1       0.035   4.784 -10.422  0.00  0.00    +0.019 C 
ATOM     29  C   UNL     1       0.123   5.426  -9.057  0.00  0.00    +0.072 C 
ENDBRANCH  24  25
ENDBRANCH   1  24
TORSDOF 11
ENDMDL
MODEL 2
REMARK VINA RESULT:      -7.9      2.301      9.568
REMARK  Name = 
REMARK  11 active torsions:
REMARK  status: ('A' for Active; 'I' for Inactive)
REMARK    1  A    between atoms: C_2  and  C_3
REMARK    2  A    between atoms: C_3  and  C_4
REMARK    3  A    between atoms: C_4  and  C_5
REMARK    4  A    between atoms: C_5  and  C_6
REMARK    5  A    between atoms: C_6  and  C_7
REMARK    6  A    between atoms: C_7  and  C_8
REMARK    7  A    between atoms: N_10  and  C_11
REMARK    8  A    between atoms: C_11  and  C_12
REMARK    9  A    between atoms: C_11  and  C_18
REMARK   10  A    between atoms: C_12  and  N_13
REMARK   11  A    between atoms: C_18  and  C_20
REMARK                            x       y       z     vdW  Elec       q    Type
REMARK                         _______ _______ _______ _____ _____    ______ ____
ROOT
ATOM      1  C   UNL     1       3.062   5.588  -7.814  0.00  0.00    +0.146 C 
ENDROOT
BRANCH   1   3
ATOM      2  C   UNL     1       0.730   5.253  -6.886  0.00  0.00    +0.241 C 
ATOM      3  N   UNL     1       1.501   5.720  -7.971  0.00  0.00    -0.203 NA
ATOM      4  O   UNL     1       1.150   4.221  -6.316  0.00  0.00    -0.273 OA
BRANCH   2   5
ATOM      5  C   UNL     1      -0.740   5.502  -6.915  0.00  0.00    +0.087 C 
BRANCH   5   6
ATOM      6  C   UNL     1      -1.281   5.683  -5.502  0.00  0.00    +0.010 C 
BRANCH   6   7
ATOM      7  C   UNL     1      -0.807   7.058  -5.048  0.00  0.00    +0.001 C 
BRANCH   7   8
ATOM      8  C   UNL     1      -1.941   7.687  -4.245  0.00  0.00    +0.000 C 
BRANCH   8   9
ATOM      9  C   UNL     1      -2.842   6.535  -3.824  0.00  0.00    +0.000 C 
BRANCH   9  11
ATOM     10  C   UNL     1      -2.795   6.849  -1.810  0.00  0.00    +0.000 C 
ATOM     11  C   UNL     1      -3.028   6.626  -2.316  0.00  0.00    +0.000 C 
ENDBRANCH   9  11
ENDBRANCH   8   9
ENDBRANCH   7   8
ENDBRANCH   6   7
ENDBRANCH   5   6
ENDBRANCH   2   5
ENDBRANCH   1   3
BRANCH   1  12
ATOM     12  C   UNL     1       3.338   6.650  -9.178  0.00  0.00    +0.195 C 
ATOM     13  O   UNL     1       2.275   5.943 -10.035  0.00  0.00    -0.216 OA
BRANCH  12  14
ATOM     14  C   UNL     1       4.560   5.727  -9.748  0.00  0.00    +0.013 A 
ATOM     15  C   UNL     1       4.597   5.463 -11.067  0.00  0.00    +0.038 A 
ATOM     16  C   UNL     1       5.820   5.096 -11.635  0.00  0.00    +0.172 A 
ATOM     17  O   UNL     1       5.939   4.962 -13.022  0.00  0.00    -0.468 OA
ATOM     18  C   UNL     1       6.871   5.637 -13.817  0.00  0.00    +0.253 C 
ATOM     19  C   UNL     1       8.140   6.008 -13.120  0.00  0.00    +0.253 C 
ATOM     20  O   UNL     1       8.028   6.138 -11.731  0.00  0.00    -0.468 OA
ATOM     21  C   UNL     1       6.952   5.613 -11.014  0.00  0.00    +0.172 A 
ATOM     22  C   UNL     1       6.919   5.876  -9.651  0.00  0.00    +0.040 A 
ATOM     23  C   UNL     1       5.709   5.900  -8.985  0.00  0.00    +0.002 A 
ENDBRANCH  12  14
ENDBRANCH   1  12
BRANCH   1  24
ATOM     24  C   UNL     1       3.119   6.863  -6.782  0.00  0.00    +0.097 C 
BRANCH  24  25
ATOM     25  N   UNL     1       4.017   6.592  -5.752  0.00  0.00    -0.271 NA
ATOM     26  C   UNL     1       3.888   7.318  -4.533  0.00  0.00    +0.072 C 
ATOM     27  C   UNL     1       4.781   6.602  -3.538  0.00  0.00    +0.019 C 
ATOM     28  C   UNL     1       4.686   5.178  -4.033  0.00  0.00    +0.019 C 
ATOM     29  C   UNL     1       4.470   5.286  -5.524  0.00  0.00    +0.072 C 
ENDBRANCH  24  25
ENDBRANCH   1  24
TORSDOF 11
ENDMDL
MODEL 3
REMARK VINA RESULT:      -7.9      1.982      3.803
REMARK  Name = 
REMARK  11 active torsions:
REMARK  status: ('A' for Active; 'I' for Inactive)
REMARK    1  A    between atoms: C_2  and  C_3
REMARK    2  A    between atoms: C_3  and  C_4
REMARK    3  A    between atoms: C_4  and  C_5
REMARK    4  A    between atoms: C_5  and  C_6
REMARK    5  A    between atoms: C_6  and  C_7
REMARK    6  A    between atoms: C_7  and  C_8
REMARK    7  A    between atoms: N_10  and  C_11
REMARK    8  A    between atoms: C_11  and  C_12
REMARK    9  A    between atoms: C_11  and  C_18
REMARK   10  A    between atoms: C_12  and  N_13
REMARK   11  A    between atoms: C_18  and  C_20
REMARK                            x       y       z     vdW  Elec       q    Type
REMARK                         _______ _______ _______ _____ _____    ______ ____
ROOT
ATOM      1  C   UNL     1       2.750   5.979  -6.417  0.00  0.00    +0.146 C 
ENDROOT
BRANCH   1   3
ATOM      2  C   UNL     1       3.501   6.092  -8.833  0.00  0.00    +0.241 C 
ATOM      3  N   UNL     1       2.951   5.283  -7.816  0.00  0.00    -0.203 NA
ATOM      4  O   UNL     1       3.126   7.286  -8.850  0.00  0.00    -0.273 OA
BRANCH   2   5
ATOM      5  C   UNL     1       3.861   5.441 -10.125  0.00  0.00    +0.087 C 
BRANCH   5   6
ATOM      6  C   UNL     1       5.302   5.759 -10.503  0.00  0.00    +0.010 C 
BRANCH   6   7
ATOM      7  C   UNL     1       6.125   5.519  -9.244  0.00  0.00    +0.001 C 
BRANCH   7   8
ATOM      8  C   UNL     1       7.588   5.757  -9.606  0.00  0.00    +0.000 C 
BRANCH   8   9
ATOM      9  C   UNL     1       7.574   6.470 -10.950  0.00  0.00    +0.000 C 
BRANCH   9  11
ATOM     10  C   UNL     1       8.883   5.808 -12.366  0.00  0.00    +0.000 C 
ATOM     11  C   UNL     1       8.670   5.853 -11.808  0.00  0.00    +0.000 C 
ENDBRANCH   9  11
ENDBRANCH   8   9
ENDBRANCH   7   8
ENDBRANCH   6   7
ENDBRANCH   5   6
ENDBRANCH   2   5
ENDBRANCH   1   3
BRANCH   1  12
ATOM     12  C   UNL     1       1.745   4.662  -5.854  0.00  0.00    +0.195 C 
ATOM     13  O   UNL     1       0.610   5.014  -6.830  0.00  0.00    -0.216 OA
BRANCH  12  14
ATOM     14  C   UNL     1       1.117   5.558  -4.639  0.00  0.00    +0.013 A 
ATOM     15  C   UNL     1      -0.057   6.180  -4.849  0.00  0.00    +0.038 A 
ATOM     16  C   UNL     1      -0.820   6.548  -3.736  0.00  0.00    +0.172 A 
ATOM     17  O   UNL     1      -2.112   7.056  -3.907  0.00  0.00    -0.468 OA
ATOM     18  C   UNL     1      -3.266   6.530  -3.315  0.00  0.00    +0.253 C 
ATOM     19  C   UNL     1      -3.042   5.829  -2.015  0.00  0.00    +0.253 C 
ATOM     20  O   UNL     1      -1.749   5.325  -1.837  0.00  0.00    -0.468 OA
ATOM     21  C   UNL     1      -0.667   5.746  -2.611  0.00  0.00    +0.172 A 
ATOM     22  C   UNL     1       0.547   5.112  -2.387  0.00  0.00    +0.040 A 
ATOM     23  C   UNL     1       1.483   5.041  -3.403  0.00  0.00    +0.002 A 
ENDBRANCH  12  14
ENDBRANCH   1  12
BRANCH   1  24
ATOM     24  C   UNL     1       4.086   5.249  -5.804  0.00  0.00    +0.097 C 
BRANCH  24  25
ATOM     25  N   UNL     1       4.656   6.063  -4.826  0.00  0.00    -0.271 NA
ATOM     26  C   UNL     1       4.318   7.446  -4.814  0.00  0.00    +0.072 C 
ATOM     27  C   UNL     1       4.835   7.979  -3.492  0.00  0.00    +0.019 C 
ATOM     28  C   UNL     1       4.690   6.762  -2.610  0.00  0.00    +0.019 C 
ATOM     29  C   UNL     1       4.871   5.577  -3.530  0.00  0.00    +0.072 C 
ENDBRANCH  24  25
ENDBRANCH   1  24
TORSDOF 11
ENDMDL
MODEL 4
REMARK VINA RESULT:      -7.9      2.233      8.553
REMARK  Name = 
REMARK  11 active torsions:
REMARK  status: ('A' for Active; 'I' for Inactive)
REMARK    1  A    between atoms: C_2  and  C_3
REMARK    2  A    between atoms: C_3  and  C_4
REMARK    3  A    between atoms: C_4  and  C_5
REMARK    4  A    between atoms: C_5  and  C_6
REMARK    5  A    between atoms: C_6  and  C_7
REMARK    6  A    between atoms: C_7  and  C_8
REMARK    7  A    between atoms: N_10  and  C_11
REMARK    8  A    between atoms: C_11  and  C_12
REMARK    9  A    between atoms: C_11  and  C_18
REMARK   10  A    between atoms: C_12  and  N_13
REMARK   11  A    between atoms: C_18  and  C_20
REMARK                            x       y       z     vdW  Elec       q    Type
REMARK                         _______ _______ _______ _____ _____    ______ ____
ROOT
ATOM      1  C   UNL     1       3.013   5.829  -8.182  0.00  0.00    +0.146 C 
ENDROOT
BRANCH   1   3
ATOM      2  C   UNL     1       3.059   6.256  -5.687  0.00  0.00    +0.241 C 
ATOM      3  N   UNL     1       3.309   5.327  -6.719  0.00  0.00    -0.203 NA
ATOM      4  O   UNL     1       3.342   7.449  -5.938  0.00  0.00    -0.273 OA
BRANCH   2   5
ATOM      5  C   UNL     1       3.168   5.781  -4.278  0.00  0.00    +0.087 C 
BRANCH   5   6
ATOM      6  C   UNL     1       1.891   6.091  -3.506  0.00  0.00    +0.010 C 
BRANCH   6   7
ATOM      7  C   UNL     1       0.797   5.256  -4.158  0.00  0.00    +0.001 C 
BRANCH   7   8
ATOM      8  C   UNL     1      -0.463   6.114  -4.206  0.00  0.00    +0.000 C 
BRANCH   8   9
ATOM      9  C   UNL     1      -0.676   6.461  -5.672  0.00  0.00    +0.000 C 
BRANCH   9  11
ATOM     10  C   UNL     1      -2.284   5.548  -6.529  0.00  0.00    +0.000 C 
ATOM     11  C   UNL     1      -2.007   5.858  -6.097  0.00  0.00    +0.000 C 
ENDBRANCH   9  11
ENDBRANCH   8   9
ENDBRANCH   7   8
ENDBRANCH   6   7
ENDBRANCH   5   6
ENDBRANCH   2   5
ENDBRANCH   1   3
BRANCH   1  12
ATOM     12  C   UNL     1       4.003   4.559  -8.869  0.00  0.00    +0.195 C 
ATOM     13  O   UNL     1       5.207   4.919  -7.983  0.00  0.00    -0.216 OA
BRANCH  12  14
ATOM     14  C   UNL     1       4.497   5.507 -10.105  0.00  0.00    +0.013 A 
ATOM     15  C   UNL     1       5.772   5.937 -10.106  0.00  0.00    +0.038 A 
ATOM     16  C   UNL     1       6.336   6.334 -11.322  0.00  0.00    +0.172 A 
ATOM     17  O   UNL     1       7.698   6.642 -11.398  0.00  0.00    -0.468 OA
ATOM     18  C   UNL     1       8.608   6.044 -12.277  0.00  0.00    +0.253 C 
ATOM     19  C   UNL     1       8.014   5.545 -13.554  0.00  0.00    +0.253 C 
ATOM     20  O   UNL     1       6.650   5.242 -13.484  0.00  0.00    -0.468 OA
ATOM     21  C   UNL     1       5.831   5.705 -12.454  0.00  0.00    +0.172 A 
ATOM     22  C   UNL     1       4.512   5.270 -12.458  0.00  0.00    +0.040 A 
ATOM     23  C   UNL     1       3.807   5.199 -11.271  0.00  0.00    +0.002 A 
ENDBRANCH  12  14
ENDBRANCH   1  12
BRANCH   1  24
ATOM     24  C   UNL     1       1.679   4.879  -8.294  0.00  0.00    +0.097 C 
BRANCH  24  25
ATOM     25  N   UNL     1       0.790   5.427  -9.216  0.00  0.00    -0.271 NA
ATOM     26  C   UNL     1       0.996   6.771  -9.639  0.00  0.00    +0.072 C 
ATOM     27  C   UNL     1       0.082   6.966 -10.833  0.00  0.00    +0.019 C 
ATOM     28  C   UNL     1       0.069   5.575 -11.421  0.00  0.00    +0.019 C 
ATOM     29  C   UNL     1       0.256   4.642 -10.247  0.00  0.00    +0.072 C 
ENDBRANCH  24  25
ENDBRANCH   1  24
TORSDOF 11
ENDMDL
MODEL 5
REMARK VINA RESULT:      -7.6      2.632      8.614
REMARK  Name = 
REMARK  11 active torsions:
REMARK  status: ('A' for Active; 'I' for Inactive)
REMARK    1  A    between atoms: C_2  and  C_3
REMARK    2  A    between atoms: C_3  and  C_4
REMARK    3  A    between atoms: C_4  and  C_5
REMARK    4  A    between atoms: C_5  and  C_6
REMARK    5  A    between atoms: C_6  and  C_7
REMARK    6  A    between atoms: C_7  and  C_8
REMARK    7  A    between atoms: N_10  and  C_11
REMARK    8  A    between atoms: C_11  and  C_12
REMARK    9  A    between atoms: C_11  and  C_18
REMARK   10  A    between atoms: C_12  and  N_13
REMARK   11  A    between atoms: C_18  and  C_20
REMARK                            x       y       z     vdW  Elec       q    Type
REMARK                         _______ _______ _______ _____ _____    ______ ____
ROOT
ATOM      1  C   UNL     1       2.780   6.128  -4.985  0.00  0.00    +0.146 C 
ENDROOT
BRANCH   1   3
ATOM      2  C   UNL     1       0.649   6.158  -3.617  0.00  0.00    +0.241 C 
ATOM      3  N   UNL     1       1.478   6.874  -4.508  0.00  0.00    -0.203 NA
ATOM      4  O   UNL     1       0.544   4.930  -3.829  0.00  0.00    -0.273 OA
BRANCH   2   5
ATOM      5  C   UNL     1      -0.508   6.877  -3.010  0.00  0.00    +0.087 C 
BRANCH   5   6
ATOM      6  C   UNL     1      -1.461   7.369  -4.092  0.00  0.00    +0.010 C 
BRANCH   6   7
ATOM      7  C   UNL     1      -2.760   6.602  -3.884  0.00  0.00    +0.001 C 
BRANCH   7   8
ATOM      8  C   UNL     1      -2.786   5.467  -4.903  0.00  0.00    +0.000 C 
BRANCH   8   9
ATOM      9  C   UNL     1      -2.465   6.106  -6.246  0.00  0.00    +0.000 C 
BRANCH   9  11
ATOM     10  C   UNL     1      -0.903   5.052  -7.022  0.00  0.00    +0.000 C 
ATOM     11  C   UNL     1      -1.482   5.193  -6.965  0.00  0.00    +0.000 C 
ENDBRANCH   9  11
ENDBRANCH   8   9
ENDBRANCH   7   8
ENDBRANCH   6   7
ENDBRANCH   5   6
ENDBRANCH   2   5
ENDBRANCH   1   3
BRANCH   1  12
ATOM     12  C   UNL     1       2.979   7.233  -6.327  0.00  0.00    +0.195 C 
ATOM     13  O   UNL     1       1.475   7.229  -6.648  0.00  0.00    -0.216 OA
BRANCH  12  14
ATOM     14  C   UNL     1       3.312   6.024  -7.374  0.00  0.00    +0.013 A 
ATOM     15  C   UNL     1       2.654   5.999  -8.548  0.00  0.00    +0.038 A 
ATOM     16  C   UNL     1       3.222   5.293  -9.612  0.00  0.00    +0.172 A 
ATOM     17  O   UNL     1       2.655   5.366 -10.888  0.00  0.00    -0.468 OA
ATOM     18  C   UNL     1       3.334   5.755 -12.047  0.00  0.00    +0.253 C 
ATOM     19  C   UNL     1       4.803   5.481 -12.037  0.00  0.00    +0.253 C 
ATOM     20  O   UNL     1       5.374   5.400 -10.763  0.00  0.00    -0.468 OA
ATOM     21  C   UNL     1       4.611   5.217  -9.610  0.00  0.00    +0.172 A 
ATOM     22  C   UNL     1       5.291   5.231  -8.399  0.00  0.00    +0.040 A 
ATOM     23  C   UNL     1       4.630   5.605  -7.244  0.00  0.00    +0.002 A 
ENDBRANCH  12  14
ENDBRANCH   1  12
BRANCH   1  24
ATOM     24  C   UNL     1       3.731   7.072  -4.038  0.00  0.00    +0.097 C 
BRANCH  24  25
ATOM     25  N   UNL     1       4.144   6.348  -2.920  0.00  0.00    -0.271 NA
ATOM     26  C   UNL     1       3.914   6.905  -1.630  0.00  0.00    +0.072 C 
ATOM     27  C   UNL     1       4.185   5.781  -0.649  0.00  0.00    +0.019 C 
ATOM     28  C   UNL     1       3.770   4.578  -1.462  0.00  0.00    +0.019 C 
ATOM     29  C   UNL     1       4.049   4.950  -2.899  0.00  0.00    +0.072 C 
ENDBRANCH  24  25
ENDBRANCH   1  24
TORSDOF 11
ENDMDL
MODEL 6
REMARK VINA RESULT:      -7.6      3.170      8.128
REMARK  Name = 
REMARK  11 active torsions:
REMARK  status: ('A' for Active; 'I' for Inactive)
REMARK    1  A    between atoms: C_2  and  C_3
REMARK    2  A    between atoms: C_3  and  C_4
REMARK    3  A    between atoms: C_4  and  C_5
REMARK    4  A    between atoms: C_5  and  C_6
REMARK    5  A    between atoms: C_6  and  C_7
REMARK    6  A    between atoms: C_7  and  C_8
REMARK    7  A    between atoms: N_10  and  C_11
REMARK    8  A    between atoms: C_11  and  C_12
REMARK    9  A    between atoms: C_11  and  C_18
REMARK   10  A    between atoms: C_12  and  N_13
REMARK   11  A    between atoms: C_18  and  C_20
REMARK                            x       y       z     vdW  Elec       q    Type
REMARK                         _______ _______ _______ _____ _____    ______ ____
ROOT
ATOM      1  C   UNL     1       1.979   5.777  -6.870  0.00  0.00    +0.146 C 
ENDROOT
BRANCH   1   3
ATOM      2  C   UNL     1       3.594   5.984  -4.931  0.00  0.00    +0.241 C 
ATOM      3  N   UNL     1       2.980   5.111  -5.853  0.00  0.00    -0.203 NA
ATOM      4  O   UNL     1       3.909   7.113  -5.368  0.00  0.00    -0.273 OA
BRANCH   2   5
ATOM      5  C   UNL     1       4.422   5.384  -3.845  0.00  0.00    +0.087 C 
BRANCH   5   6
ATOM      6  C   UNL     1       4.363   6.244  -2.589  0.00  0.00    +0.010 C 
BRANCH   6   7
ATOM      7  C   UNL     1       3.924   5.311  -1.467  0.00  0.00    +0.001 C 
BRANCH   7   8
ATOM      8  C   UNL     1       2.663   5.907  -0.850  0.00  0.00    +0.000 C 
BRANCH   8   9
ATOM      9  C   UNL     1       1.586   4.840  -0.990  0.00  0.00    +0.000 C 
BRANCH   9  11
ATOM     10  C   UNL     1       0.176   5.128  -2.433  0.00  0.00    +0.000 C 
ATOM     11  C   UNL     1       0.699   5.236  -2.162  0.00  0.00    +0.000 C 
ENDBRANCH   9  11
ENDBRANCH   8   9
ENDBRANCH   7   8
ENDBRANCH   6   7
ENDBRANCH   5   6
ENDBRANCH   2   5
ENDBRANCH   1   3
BRANCH   1  12
ATOM     12  C   UNL     1       2.072   4.394  -7.940  0.00  0.00    +0.195 C 
ATOM     13  O   UNL     1       3.564   4.627  -8.230  0.00  0.00    -0.216 OA
BRANCH  12  14
ATOM     14  C   UNL     1       1.579   5.264  -9.232  0.00  0.00    +0.013 A 
ATOM     15  C   UNL     1       2.497   5.615 -10.152  0.00  0.00    +0.038 A 
ATOM     16  C   UNL     1       2.057   5.932 -11.440  0.00  0.00    +0.172 A 
ATOM     17  O   UNL     1       2.983   6.152 -12.464  0.00  0.00    -0.468 OA
ATOM     18  C   UNL     1       3.008   5.468 -13.685  0.00  0.00    +0.253 C 
ATOM     19  C   UNL     1       1.681   4.960 -14.148  0.00  0.00    +0.253 C 
ATOM     20  O   UNL     1       0.749   4.744 -13.127  0.00  0.00    -0.468 OA
ATOM     21  C   UNL     1       0.893   5.293 -11.853  0.00  0.00    +0.172 A 
ATOM     22  C   UNL     1      -0.061   4.940 -10.907  0.00  0.00    +0.040 A 
ATOM     23  C   UNL     1       0.264   4.957  -9.563  0.00  0.00    +0.002 A 
ENDBRANCH  12  14
ENDBRANCH   1  12
BRANCH   1  24
ATOM     24  C   UNL     1       0.683   5.123  -6.104  0.00  0.00    +0.097 C 
BRANCH  24  25
ATOM     25  N   UNL     1      -0.322   6.082  -5.984  0.00  0.00    -0.271 NA
ATOM     26  C   UNL     1      -1.663   5.638  -5.803  0.00  0.00    +0.072 C 
ATOM     27  C   UNL     1      -2.449   6.873  -5.409  0.00  0.00    +0.019 C 
ATOM     28  C   UNL     1      -1.399   7.663  -4.664  0.00  0.00    +0.019 C 
ATOM     29  C   UNL     1      -0.084   7.285  -5.305  0.00  0.00    +0.072 C 
ENDBRANCH  24  25
ENDBRANCH   1  24
TORSDOF 11
ENDMDL
MODEL 7
REMARK VINA RESULT:      -7.5      2.040      3.669
REMARK  Name = 
REMARK  11 active torsions:
REMARK  status: ('A' for Active; 'I' for Inactive)
REMARK    1  A    between atoms: C_2  and  C_3
REMARK    2  A    between atoms: C_3  and  C_4
REMARK    3  A    between atoms: C_4  and  C_5
REMARK    4  A    between atoms: C_5  and  C_6
REMARK    5  A    between atoms: C_6  and  C_7
REMARK    6  A    between atoms: C_7  and  C_8
REMARK    7  A    between atoms: N_10  and  C_11
REMARK    8  A    between atoms: C_11  and  C_12
REMARK    9  A    between atoms: C_11  and  C_18
REMARK   10  A    between atoms: C_12  and  N_13
REMARK   11  A    between atoms: C_18  and  C_20
REMARK                            x       y       z     vdW  Elec       q    Type
REMARK                         _______ _______ _______ _____ _____    ______ ____
ROOT
ATOM      1  C   UNL     1       0.365   6.133  -5.796  0.00  0.00    +0.146 C 
ENDROOT
BRANCH   1   3
ATOM      2  C   UNL     1       2.088   6.690  -7.566  0.00  0.00    +0.241 C 
ATOM      3  N   UNL     1       1.051   5.816  -7.178  0.00  0.00    -0.203 NA
ATOM      4  O   UNL     1       1.923   7.899  -7.288  0.00  0.00    -0.273 OA
BRANCH   2   5
ATOM      5  C   UNL     1       2.876   6.342  -8.784  0.00  0.00    +0.087 C 
BRANCH   5   6
ATOM      6  C   UNL     1       4.292   5.928  -8.405  0.00  0.00    +0.010 C 
BRANCH   6   7
ATOM      7  C   UNL     1       5.015   5.665  -9.720  0.00  0.00    +0.001 C 
BRANCH   7   8
ATOM      8  C   UNL     1       6.503   5.897  -9.475  0.00  0.00    +0.000 C 
BRANCH   8   9
ATOM      9  C   UNL     1       7.104   6.216 -10.836  0.00  0.00    +0.000 C 
BRANCH   9  11
ATOM     10  C   UNL     1       6.523   8.071 -11.452  0.00  0.00    +0.000 C 
ATOM     11  C   UNL     1       6.844   7.689 -11.119  0.00  0.00    +0.000 C 
ENDBRANCH   9  11
ENDBRANCH   8   9
ENDBRANCH   7   8
ENDBRANCH   6   7
ENDBRANCH   5   6
ENDBRANCH   2   5
ENDBRANCH   1   3
BRANCH   1  12
ATOM     12  C   UNL     1      -0.965   5.054  -6.155  0.00  0.00    +0.195 C 
ATOM     13  O   UNL     1      -1.475   5.946  -7.299  0.00  0.00    -0.216 OA
BRANCH  12  14
ATOM     14  C   UNL     1      -1.934   5.753  -5.039  0.00  0.00    +0.013 A 
ATOM     15  C   UNL     1      -2.023   5.180  -3.825  0.00  0.00    +0.038 A 
ATOM     16  C   UNL     1      -2.445   5.967  -2.750  0.00  0.00    +0.172 A 
ATOM     17  O   UNL     1      -2.406   5.458  -1.448  0.00  0.00    -0.468 OA
ATOM     18  C   UNL     1      -1.739   6.054  -0.373  0.00  0.00    +0.253 C 
ATOM     19  C   UNL     1      -1.605   7.539  -0.461  0.00  0.00    +0.253 C 
ATOM     20  O   UNL     1      -1.649   8.054  -1.761  0.00  0.00    -0.468 OA
ATOM     21  C   UNL     1      -2.142   7.321  -2.841  0.00  0.00    +0.172 A 
ATOM     22  C   UNL     1      -2.060   7.917  -4.092  0.00  0.00    +0.040 A 
ATOM     23  C   UNL     1      -1.990   7.129  -5.226  0.00  0.00    +0.002 A 
ENDBRANCH  12  14
ENDBRANCH   1  12
BRANCH   1  24
ATOM     24  C   UNL     1       1.179   4.916  -5.054  0.00  0.00    +0.097 C 
BRANCH  24  25
ATOM     25  N   UNL     1       2.249   5.442  -4.331  0.00  0.00    -0.271 NA
ATOM     26  C   UNL     1       3.565   5.002  -4.652  0.00  0.00    +0.072 C 
ATOM     27  C   UNL     1       4.498   5.953  -3.929  0.00  0.00    +0.019 C 
ATOM     28  C   UNL     1       3.686   7.226  -3.943  0.00  0.00    +0.019 C 
ATOM     29  C   UNL     1       2.243   6.781  -3.918  0.00  0.00    +0.072 C 
ENDBRANCH  24  25
ENDBRANCH   1  24
TORSDOF 11
ENDMDL
MODEL 8
REMARK VINA RESULT:      -7.5      2.366      8.256
REMARK  Name = 
REMARK  11 active torsions:
REMARK  status: ('A' for Active; 'I' for Inactive)
REMARK    1  A    between atoms: C_2  and  C_3
REMARK    2  A    between atoms: C_3  and  C_4
REMARK    3  A    between atoms: C_4  and  C_5
REMARK    4  A    between atoms: C_5  and  C_6
REMARK    5  A    between atoms: C_6  and  C_7
REMARK    6  A    between atoms: C_7  and  C_8
REMARK    7  A    between atoms: N_10  and  C_11
REMARK    8  A    between atoms: C_11  and  C_12
REMARK    9  A    between atoms: C_11  and  C_18
REMARK   10  A    between atoms: C_12  and  N_13
REMARK   11  A    between atoms: C_18  and  C_20
REMARK                            x       y       z     vdW  Elec       q    Type
REMARK                         _______ _______ _______ _____ _____    ______ ____
ROOT
ATOM      1  C   UNL     1       2.559   5.750  -8.337  0.00  0.00    +0.146 C 
ENDROOT
BRANCH   1   3
ATOM      2  C   UNL     1       1.268   5.687  -6.159  0.00  0.00    +0.241 C 
ATOM      3  N   UNL     1       2.375   5.187  -6.878  0.00  0.00    -0.203 NA
ATOM      4  O   UNL     1       1.001   6.897  -6.330  0.00  0.00    -0.273 OA
BRANCH   2   5
ATOM      5  C   UNL     1       0.956   5.070  -4.838  0.00  0.00    +0.087 C 
BRANCH   5   6
ATOM      6  C   UNL     1       0.545   6.137  -3.831  0.00  0.00    +0.010 C 
BRANCH   6   7
ATOM      7  C   UNL     1       1.388   5.883  -2.588  0.00  0.00    +0.001 C 
BRANCH   7   8
ATOM      8  C   UNL     1       2.745   6.541  -2.817  0.00  0.00    +0.000 C 
BRANCH   8   9
ATOM      9  C   UNL     1       3.782   5.461  -2.548  0.00  0.00    +0.000 C 
BRANCH   9  11
ATOM     10  C   UNL     1       4.920   4.840  -4.121  0.00  0.00    +0.000 C 
ATOM     11  C   UNL     1       4.507   5.185  -3.858  0.00  0.00    +0.000 C 
ENDBRANCH   9  11
ENDBRANCH   8   9
ENDBRANCH   7   8
ENDBRANCH   6   7
ENDBRANCH   5   6
ENDBRANCH   2   5
ENDBRANCH   1   3
BRANCH   1  12
ATOM     12  C   UNL     1       3.852   4.617  -8.662  0.00  0.00    +0.195 C 
ATOM     13  O   UNL     1       4.763   5.239  -7.590  0.00  0.00    -0.216 OA
BRANCH  12  14
ATOM     14  C   UNL     1       4.463   5.540  -9.864  0.00  0.00    +0.013 A 
ATOM     15  C   UNL     1       5.747   5.931  -9.778  0.00  0.00    +0.038 A 
ATOM     16  C   UNL     1       6.408   6.301 -10.952  0.00  0.00    +0.172 A 
ATOM     17  O   UNL     1       7.781   6.566 -10.933  0.00  0.00    -0.468 OA
ATOM     18  C   UNL     1       8.732   5.934 -11.742  0.00  0.00    +0.253 C 
ATOM     19  C   UNL     1       8.214   5.444 -13.055  0.00  0.00    +0.253 C 
ATOM     20  O   UNL     1       6.840   5.184 -13.081  0.00  0.00    -0.468 OA
ATOM     21  C   UNL     1       5.965   5.679 -12.114  0.00  0.00    +0.172 A 
ATOM     22  C   UNL     1       4.637   5.285 -12.210  0.00  0.00    +0.040 A 
ATOM     23  C   UNL     1       3.848   5.245 -11.075  0.00  0.00    +0.002 A 
ENDBRANCH  12  14
ENDBRANCH   1  12
BRANCH   1  24
ATOM     24  C   UNL     1       1.455   4.694  -8.938  0.00  0.00    +0.097 C 
BRANCH  24  25
ATOM     25  N   UNL     1       0.601   5.360  -9.817  0.00  0.00    -0.271 NA
ATOM     26  C   UNL     1       0.752   6.767  -9.971  0.00  0.00    +0.072 C 
ATOM     27  C   UNL     1      -0.084   7.135 -11.181  0.00  0.00    +0.019 C 
ATOM     28  C   UNL     1       0.034   5.878 -12.010  0.00  0.00    +0.019 C 
ATOM     29  C   UNL     1       0.194   4.754 -11.013  0.00  0.00    +0.072 C 
ENDBRANCH  24  25
ENDBRANCH   1  24
TORSDOF 11
ENDMDL
MODEL 9
REMARK VINA RESULT:      -7.4      2.368      4.866
REMARK  Name = 
REMARK  11 active torsions:
REMARK  status: ('A' for Active; 'I' for Inactive)
REMARK    1  A    between atoms: C_2  and  C_3
REMARK    2  A    between atoms: C_3  and  C_4
REMARK    3  A    between atoms: C_4  and  C_5
REMARK    4  A    between atoms: C_5  and  C_6
REMARK    5  A    between atoms: C_6  and  C_7
REMARK    6  A    between atoms: C_7  and  C_8
REMARK    7  A    between atoms: N_10  and  C_11
REMARK    8  A    between atoms: C_11  and  C_12
REMARK    9  A    between atoms: C_11  and  C_18
REMARK   10  A    between atoms: C_12  and  N_13
REMARK   11  A    between atoms: C_18  and  C_20
REMARK                            x       y       z     vdW  Elec       q    Type
REMARK                         _______ _______ _______ _____ _____    ______ ____
ROOT
ATOM      1  C   UNL     1       2.890   5.989  -8.988  0.00  0.00    +0.146 C 
ENDROOT
BRANCH   1   3
ATOM      2  C   UNL     1       1.035   6.037 -10.711  0.00  0.00    +0.241 C 
ATOM      3  N   UNL     1       1.848   5.227  -9.890  0.00  0.00    -0.203 NA
ATOM      4  O   UNL     1       0.659   7.122 -10.215  0.00  0.00    -0.273 OA
BRANCH   2   5
ATOM      5  C   UNL     1       0.147   5.360 -11.700  0.00  0.00    +0.087 C 
BRANCH   5   6
ATOM      6  C   UNL     1       0.926   4.993 -12.957  0.00  0.00    +0.010 C 
BRANCH   6   7
ATOM      7  C   UNL     1       1.037   6.277 -13.768  0.00  0.00    +0.001 C 
BRANCH   7   8
ATOM      8  C   UNL     1       2.447   6.328 -14.348  0.00  0.00    +0.000 C 
BRANCH   8   9
ATOM      9  C   UNL     1       3.103   5.009 -13.965  0.00  0.00    +0.000 C 
BRANCH   9  11
ATOM     10  C   UNL     1       5.066   5.100 -13.422  0.00  0.00    +0.000 C 
ATOM     11  C   UNL     1       4.580   5.286 -13.719  0.00  0.00    +0.000 C 
ENDBRANCH   9  11
ENDBRANCH   8   9
ENDBRANCH   7   8
ENDBRANCH   6   7
ENDBRANCH   5   6
ENDBRANCH   2   5
ENDBRANCH   1   3
BRANCH   1  12
ATOM     12  C   UNL     1       2.916   4.678  -7.829  0.00  0.00    +0.195 C 
ATOM     13  O   UNL     1       1.395   4.738  -7.617  0.00  0.00    -0.216 OA
BRANCH  12  14
ATOM     14  C   UNL     1       3.233   5.686  -6.581  0.00  0.00    +0.013 A 
ATOM     15  C   UNL     1       2.221   6.022  -5.761  0.00  0.00    +0.038 A 
ATOM     16  C   UNL     1       2.531   6.475  -4.476  0.00  0.00    +0.172 A 
ATOM     17  O   UNL     1       1.513   6.689  -3.541  0.00  0.00    -0.468 OA
ATOM     18  C   UNL     1       1.451   6.101  -2.273  0.00  0.00    +0.253 C 
ATOM     19  C   UNL     1       2.776   5.751  -1.677  0.00  0.00    +0.253 C 
ATOM     20  O   UNL     1       3.799   5.542  -2.608  0.00  0.00    -0.468 OA
ATOM     21  C   UNL     1       3.709   5.977  -3.931  0.00  0.00    +0.172 A 
ATOM     22  C   UNL     1       4.759   5.640  -4.774  0.00  0.00    +0.040 A 
ATOM     23  C   UNL     1       4.539   5.524  -6.134  0.00  0.00    +0.002 A 
ENDBRANCH  12  14
ENDBRANCH   1  12
BRANCH   1  24
ATOM     24  C   UNL     1       4.154   5.326  -9.798  0.00  0.00    +0.097 C 
BRANCH  24  25
ATOM     25  N   UNL     1       5.170   6.271  -9.935  0.00  0.00    -0.271 NA
ATOM     26  C   UNL     1       6.509   5.809 -10.082  0.00  0.00    +0.072 C 
ATOM     27  C   UNL     1       7.312   7.024 -10.505  0.00  0.00    +0.019 C 
ATOM     28  C   UNL     1       6.281   7.798 -11.290  0.00  0.00    +0.019 C 
ATOM     29  C   UNL     1       4.953   7.453 -10.656  0.00  0.00    +0.072 C 
ENDBRANCH  24  25
ENDBRANCH   1  24
TORSDOF 11
ENDMDL
