MODEL 1
REMARK VINA RESULT:      -9.3      0.000      0.000
REMARK  Name = 
REMARK  3 active torsions:
REMARK  status: ('A' for Active; 'I' for Inactive)
REMARK    1  A    between atoms: O_2  and  C_3
REMARK    2  A    between atoms: C_12  and  C_14
REMARK    3  A    between atoms: C_31  and  O_32
REMARK                            x       y       z     vdW  Elec       q    Type
REMARK                         _______ _______ _______ _____ _____    ______ ____
ROOT
ATOM      1  C   UNL     1       1.839   5.468 -13.625  0.00  0.00    +0.174 A 
ATOM      2  C   UNL     1       3.226   5.536 -13.676  0.00  0.00    +0.173 A 
ATOM      3  C   UNL     1       3.925   5.794 -12.515  0.00  0.00    +0.044 A 
ATOM      4  C   UNL     1       3.284   6.035 -11.330  0.00  0.00    +0.056 A 
ATOM      5  C   UNL     1       1.928   5.749 -11.252  0.00  0.00    +0.090 A 
ATOM      6  N   UNL     1       1.331   5.742 -10.035  0.00  0.00    -0.213 NA
ATOM      7  C   UNL     1       1.962   6.319  -8.989  0.00  0.00    +0.221 A 
ATOM      8  N   UNL     1       3.031   7.098  -9.284  0.00  0.00    -0.195 NA
ATOM      9  N   UNL     1       1.661   5.940  -7.638  0.00  0.00    -0.275 N 
ATOM     10  C   UNL     1       1.766   4.551  -7.322  0.00  0.00    +0.115 C 
ATOM     11  C   UNL     1       2.348   4.216  -6.002  0.00  0.00    +0.115 C 
ATOM     12  N   UNL     1       3.061   5.265  -5.337  0.00  0.00    -0.273 N 
ATOM     13  C   UNL     1       2.654   5.578  -3.993  0.00  0.00    +0.270 C 
ATOM     14  O   UNL     1       1.747   6.468  -3.939  0.00  0.00    -0.271 OA
ATOM     15  C   UNL     1       3.414   6.435  -6.143  0.00  0.00    +0.115 C 
ATOM     16  C   UNL     1       2.062   6.936  -6.644  0.00  0.00    +0.115 C 
ATOM     17  C   UNL     1       3.810   6.858 -10.363  0.00  0.00    +0.174 A 
ATOM     18  N   UNL     1       5.131   7.372 -10.482  0.00  0.00    -0.107 NA
ATOM     19  C   UNL     1       1.205   5.437 -12.397  0.00  0.00    +0.059 A 
ENDROOT
BRANCH  13  20
ATOM     20  C   UNL     1       4.001   6.080  -3.177  0.00  0.00    +0.284 C 
ATOM     21  O   UNL     1       3.209   7.263  -2.508  0.00  0.00    -0.463 OA
ATOM     22  C   UNL     1       3.913   7.812  -1.428  0.00  0.00    +0.173 A 
ATOM     23  C   UNL     1       4.287   6.933  -0.418  0.00  0.00    +0.172 A 
ATOM     24  C   UNL     1       4.179   7.273   0.926  0.00  0.00    +0.040 A 
ATOM     25  C   UNL     1       3.976   8.582   1.271  0.00  0.00    +0.003 A 
ATOM     26  C   UNL     1       3.782   9.508   0.256  0.00  0.00    +0.003 A 
ATOM     27  O   UNL     1       4.432   5.606  -0.836  0.00  0.00    -0.468 OA
ATOM     28  C   UNL     1       3.728   9.122  -1.075  0.00  0.00    +0.040 A 
ATOM     29  C   UNL     1       3.646   5.060  -1.886  0.00  0.00    +0.258 C 
ENDBRANCH  13  20
BRANCH   1  31
ATOM     30  C   UNL     1       0.610   6.231 -15.076  0.00  0.00    +0.253 C 
ATOM     31  O   UNL     1       1.109   5.875 -14.746  0.00  0.00    -0.468 OA
ENDBRANCH   1  31
BRANCH   2  32
ATOM     32  O   UNL     1       3.810   5.688 -14.936  0.00  0.00    -0.468 OA
ATOM     33  C   UNL     1       4.927   6.550 -15.071  0.00  0.00    +0.253 C 
ENDBRANCH   2  32
TORSDOF 3
ENDMDL
MODEL 2
REMARK VINA RESULT:      -9.0      2.026     10.777
REMARK  Name = 
REMARK  3 active torsions:
REMARK  status: ('A' for Active; 'I' for Inactive)
REMARK    1  A    between atoms: O_2  and  C_3
REMARK    2  A    between atoms: C_12  and  C_14
REMARK    3  A    between atoms: C_31  and  O_32
REMARK                            x       y       z     vdW  Elec       q    Type
REMARK                         _______ _______ _______ _____ _____    ______ ____
ROOT
ATOM      1  C   UNL     1       3.108   5.403  -1.790  0.00  0.00    +0.174 A 
ATOM      2  C   UNL     1       1.721   5.356  -1.724  0.00  0.00    +0.173 A 
ATOM      3  C   UNL     1       0.989   5.570  -2.873  0.00  0.00    +0.044 A 
ATOM      4  C   UNL     1       1.595   5.880  -4.062  0.00  0.00    +0.056 A 
ATOM      5  C   UNL     1       2.969   5.708  -4.158  0.00  0.00    +0.090 A 
ATOM      6  N   UNL     1       3.550   5.766  -5.381  0.00  0.00    -0.213 NA
ATOM      7  C   UNL     1       2.861   6.303  -6.412  0.00  0.00    +0.221 A 
ATOM      8  N   UNL     1       1.735   6.987  -6.095  0.00  0.00    -0.195 NA
ATOM      9  N   UNL     1       3.177   5.968  -7.772  0.00  0.00    -0.275 N 
ATOM     10  C   UNL     1       3.183   4.579  -8.106  0.00  0.00    +0.115 C 
ATOM     11  C   UNL     1       2.615   4.215  -9.425  0.00  0.00    +0.115 C 
ATOM     12  N   UNL     1       1.810   5.211 -10.066  0.00  0.00    -0.273 N 
ATOM     13  C   UNL     1       2.175   5.575 -11.410  0.00  0.00    +0.270 C 
ATOM     14  O   UNL     1       3.004   6.536 -11.461  0.00  0.00    -0.271 OA
ATOM     15  C   UNL     1       1.372   6.337  -9.241  0.00  0.00    +0.115 C 
ATOM     16  C   UNL     1       2.683   6.940  -8.746  0.00  0.00    +0.115 C 
ATOM     17  C   UNL     1       0.992   6.669  -5.011  0.00  0.00    +0.174 A 
ATOM     18  N   UNL     1      -0.365   7.071  -4.870  0.00  0.00    -0.107 NA
ATOM     19  C   UNL     1       3.728   5.441  -3.025  0.00  0.00    +0.059 A 
ENDROOT
BRANCH  13  20
ATOM     20  C   UNL     1       0.781   5.974 -12.205  0.00  0.00    +0.284 C 
ATOM     21  O   UNL     1       1.469   7.220 -12.877  0.00  0.00    -0.463 OA
ATOM     22  C   UNL     1       0.710   7.718 -13.943  0.00  0.00    +0.173 A 
ATOM     23  C   UNL     1       0.392   6.818 -14.954  0.00  0.00    +0.172 A 
ATOM     24  C   UNL     1       0.454   7.173 -16.297  0.00  0.00    +0.040 A 
ATOM     25  C   UNL     1       0.550   8.496 -16.636  0.00  0.00    +0.003 A 
ATOM     26  C   UNL     1       0.686   9.428 -15.618  0.00  0.00    +0.003 A 
ATOM     27  O   UNL     1       0.356   5.482 -14.543  0.00  0.00    -0.468 OA
ATOM     28  C   UNL     1       0.787   9.040 -14.290  0.00  0.00    +0.040 A 
ATOM     29  C   UNL     1       1.197   4.993 -13.507  0.00  0.00    +0.258 C 
ENDBRANCH  13  20
BRANCH   1  31
ATOM     30  C   UNL     1       4.352   6.156  -0.346  0.00  0.00    +0.253 C 
ATOM     31  O   UNL     1       3.815   5.854  -0.671  0.00  0.00    -0.468 OA
ENDBRANCH   1  31
BRANCH   2  32
ATOM     32  O   UNL     1       1.142   5.442  -0.456  0.00  0.00    -0.468 OA
ATOM     33  C   UNL     1       0.331   6.564  -0.150  0.00  0.00    +0.253 C 
ENDBRANCH   2  32
TORSDOF 3
ENDMDL
MODEL 3
REMARK VINA RESULT:      -8.7      3.016     10.427
REMARK  Name = 
REMARK  3 active torsions:
REMARK  status: ('A' for Active; 'I' for Inactive)
REMARK    1  A    between atoms: O_2  and  C_3
REMARK    2  A    between atoms: C_12  and  C_14
REMARK    3  A    between atoms: C_31  and  O_32
REMARK                            x       y       z     vdW  Elec       q    Type
REMARK                         _______ _______ _______ _____ _____    ______ ____
ROOT
ATOM      1  C   UNL     1      -0.296   6.864  -0.244  0.00  0.00    +0.174 A 
ATOM      2  C   UNL     1       1.037   7.089   0.074  0.00  0.00    +0.173 A 
ATOM      3  C   UNL     1       2.007   6.792  -0.861  0.00  0.00    +0.044 A 
ATOM      4  C   UNL     1       1.690   6.232  -2.069  0.00  0.00    +0.056 A 
ATOM      5  C   UNL     1       0.356   6.218  -2.452  0.00  0.00    +0.090 A 
ATOM      6  N   UNL     1       0.047   5.903  -3.734  0.00  0.00    -0.213 NA
ATOM      7  C   UNL     1       0.979   5.301  -4.506  0.00  0.00    +0.221 A 
ATOM      8  N   UNL     1       2.071   4.816  -3.867  0.00  0.00    -0.195 NA
ATOM      9  N   UNL     1       0.923   5.382  -5.938  0.00  0.00    -0.275 N 
ATOM     10  C   UNL     1       0.862   6.692  -6.505  0.00  0.00    +0.115 C 
ATOM     11  C   UNL     1       1.656   6.916  -7.736  0.00  0.00    +0.115 C 
ATOM     12  N   UNL     1       2.661   5.938  -8.030  0.00  0.00    -0.273 N 
ATOM     13  C   UNL     1       2.616   5.331  -9.333  0.00  0.00    +0.270 C 
ATOM     14  O   UNL     1       1.904   4.279  -9.371  0.00  0.00    -0.271 OA
ATOM     15  C   UNL     1       3.018   5.015  -6.952  0.00  0.00    +0.115 C 
ATOM     16  C   UNL     1       1.691   4.339  -6.616  0.00  0.00    +0.115 C 
ATOM     17  C   UNL     1       2.544   5.386  -2.735  0.00  0.00    +0.174 A 
ATOM     18  N   UNL     1       3.873   5.179  -2.272  0.00  0.00    -0.107 NA
ATOM     19  C   UNL     1      -0.642   6.561  -1.548  0.00  0.00    +0.059 A 
ENDROOT
BRANCH  13  20
ATOM     20  C   UNL     1       4.174   4.987  -9.768  0.00  0.00    +0.284 C 
ATOM     21  O   UNL     1       3.859   5.268 -11.284  0.00  0.00    -0.463 OA
ATOM     22  C   UNL     1       5.030   5.409 -12.039  0.00  0.00    +0.173 A 
ATOM     23  C   UNL     1       5.933   6.376 -11.611  0.00  0.00    +0.172 A 
ATOM     24  C   UNL     1       6.588   7.214 -12.507  0.00  0.00    +0.040 A 
ATOM     25  C   UNL     1       6.574   6.908 -13.842  0.00  0.00    +0.003 A 
ATOM     26  C   UNL     1       5.816   5.825 -14.261  0.00  0.00    +0.003 A 
ATOM     27  O   UNL     1       5.858   6.667 -10.245  0.00  0.00    -0.468 OA
ATOM     28  C   UNL     1       5.036   5.100 -13.373  0.00  0.00    +0.040 A 
ATOM     29  C   UNL     1       4.635   6.587  -9.527  0.00  0.00    +0.258 C 
ENDBRANCH  13  20
BRANCH   1  31
ATOM     30  C   UNL     1      -1.785   6.520   1.122  0.00  0.00    +0.253 C 
ATOM     31  O   UNL     1      -1.176   6.508   0.783  0.00  0.00    -0.468 OA
ENDBRANCH   1  31
BRANCH   2  32
ATOM     32  O   UNL     1       1.347   7.271   1.424  0.00  0.00    -0.468 OA
ATOM     33  C   UNL     1       1.934   8.496   1.831  0.00  0.00    +0.253 C 
ENDBRANCH   2  32
TORSDOF 3
ENDMDL
MODEL 4
REMARK VINA RESULT:      -8.7      4.055     10.600
REMARK  Name = 
REMARK  3 active torsions:
REMARK  status: ('A' for Active; 'I' for Inactive)
REMARK    1  A    between atoms: O_2  and  C_3
REMARK    2  A    between atoms: C_12  and  C_14
REMARK    3  A    between atoms: C_31  and  O_32
REMARK                            x       y       z     vdW  Elec       q    Type
REMARK                         _______ _______ _______ _____ _____    ______ ____
ROOT
ATOM      1  C   UNL     1      -1.691   7.591   0.894  0.00  0.00    +0.174 A 
ATOM      2  C   UNL     1      -0.430   7.267   1.377  0.00  0.00    +0.173 A 
ATOM      3  C   UNL     1       0.478   6.669   0.528  0.00  0.00    +0.044 A 
ATOM      4  C   UNL     1       0.147   6.341  -0.759  0.00  0.00    +0.056 A 
ATOM      5  C   UNL     1      -1.026   6.864  -1.285  0.00  0.00    +0.090 A 
ATOM      6  N   UNL     1      -1.247   6.762  -2.618  0.00  0.00    -0.213 NA
ATOM      7  C   UNL     1      -0.511   5.890  -3.342  0.00  0.00    +0.221 A 
ATOM      8  N   UNL     1       0.217   4.987  -2.641  0.00  0.00    -0.195 NA
ATOM      9  N   UNL     1      -0.331   6.063  -4.755  0.00  0.00    -0.275 N 
ATOM     10  C   UNL     1       0.186   7.323  -5.187  0.00  0.00    +0.115 C 
ATOM     11  C   UNL     1       1.170   7.289  -6.294  0.00  0.00    +0.115 C 
ATOM     12  N   UNL     1       1.765   6.017  -6.576  0.00  0.00    -0.273 N 
ATOM     13  C   UNL     1       1.678   5.545  -7.932  0.00  0.00    +0.270 C 
ATOM     14  O   UNL     1       0.636   4.854  -8.157  0.00  0.00    -0.271 OA
ATOM     15  C   UNL     1       1.593   4.971  -5.567  0.00  0.00    +0.115 C 
ATOM     16  C   UNL     1       0.076   4.843  -5.450  0.00  0.00    +0.115 C 
ATOM     17  C   UNL     1       0.705   5.268  -1.411  0.00  0.00    +0.174 A 
ATOM     18  N   UNL     1       1.779   4.539  -0.830  0.00  0.00    -0.107 NA
ATOM     19  C   UNL     1      -1.938   7.517  -0.464  0.00  0.00    +0.059 A 
ENDROOT
BRANCH  13  20
ATOM     20  C   UNL     1       3.037   4.651  -8.228  0.00  0.00    +0.284 C 
ATOM     21  O   UNL     1       3.277   5.388  -9.598  0.00  0.00    -0.463 OA
ATOM     22  C   UNL     1       4.569   5.159 -10.089  0.00  0.00    +0.173 A 
ATOM     23  C   UNL     1       5.623   5.488  -9.244  0.00  0.00    +0.172 A 
ATOM     24  C   UNL     1       6.767   6.125  -9.713  0.00  0.00    +0.040 A 
ATOM     25  C   UNL     1       6.997   6.179 -11.062  0.00  0.00    +0.003 A 
ATOM     26  C   UNL     1       6.023   5.683 -11.916  0.00  0.00    +0.003 A 
ATOM     27  O   UNL     1       5.300   5.455  -7.883  0.00  0.00    -0.468 OA
ATOM     28  C   UNL     1       4.816   5.201 -11.435  0.00  0.00    +0.040 A 
ATOM     29  C   UNL     1       3.997   5.767  -7.414  0.00  0.00    +0.258 C 
ENDBRANCH  13  20
BRANCH   1  31
ATOM     30  C   UNL     1      -3.336   7.809   2.097  0.00  0.00    +0.253 C 
ATOM     31  O   UNL     1      -2.775   7.548   1.776  0.00  0.00    -0.468 OA
ENDBRANCH   1  31
BRANCH   2  32
ATOM     32  O   UNL     1      -0.267   7.241   2.765  0.00  0.00    -0.468 OA
ATOM     33  C   UNL     1       0.361   8.343   3.399  0.00  0.00    +0.253 C 
ENDBRANCH   2  32
TORSDOF 3
ENDMDL
MODEL 5
REMARK VINA RESULT:      -8.4      2.279     10.565
REMARK  Name = 
REMARK  3 active torsions:
REMARK  status: ('A' for Active; 'I' for Inactive)
REMARK    1  A    between atoms: O_2  and  C_3
REMARK    2  A    between atoms: C_12  and  C_14
REMARK    3  A    between atoms: C_31  and  O_32
REMARK                            x       y       z     vdW  Elec       q    Type
REMARK                         _______ _______ _______ _____ _____    ______ ____
ROOT
ATOM      1  C   UNL     1       2.093   6.480  -1.521  0.00  0.00    +0.174 A 
ATOM      2  C   UNL     1       0.872   5.851  -1.725  0.00  0.00    +0.173 A 
ATOM      3  C   UNL     1       0.431   5.651  -3.016  0.00  0.00    +0.044 A 
ATOM      4  C   UNL     1       1.141   6.104  -4.095  0.00  0.00    +0.056 A 
ATOM      5  C   UNL     1       2.447   6.527  -3.885  0.00  0.00    +0.090 A 
ATOM      6  N   UNL     1       3.245   6.740  -4.960  0.00  0.00    -0.213 NA
ATOM      7  C   UNL     1       2.684   6.858  -6.184  0.00  0.00    +0.221 A 
ATOM      8  N   UNL     1       1.338   7.018  -6.218  0.00  0.00    -0.195 NA
ATOM      9  N   UNL     1       3.438   6.594  -7.376  0.00  0.00    -0.275 N 
ATOM     10  C   UNL     1       4.079   5.320  -7.461  0.00  0.00    +0.115 C 
ATOM     11  C   UNL     1       4.055   4.656  -8.785  0.00  0.00    +0.115 C 
ATOM     12  N   UNL     1       3.111   5.166  -9.734  0.00  0.00    -0.273 N 
ATOM     13  C   UNL     1       3.627   5.553 -11.020  0.00  0.00    +0.270 C 
ATOM     14  O   UNL     1       3.990   6.771 -11.068  0.00  0.00    -0.271 OA
ATOM     15  C   UNL     1       2.069   6.053  -9.216  0.00  0.00    +0.115 C 
ATOM     16  C   UNL     1       2.862   7.191  -8.580  0.00  0.00    +0.115 C 
ATOM     17  C   UNL     1       0.535   6.491  -5.266  0.00  0.00    +0.174 A 
ATOM     18  N   UNL     1      -0.857   6.285  -5.469  0.00  0.00    -0.107 NA
ATOM     19  C   UNL     1       2.937   6.690  -2.596  0.00  0.00    +0.059 A 
ENDROOT
BRANCH  13  20
ATOM     20  C   UNL     1       2.439   5.263 -12.133  0.00  0.00    +0.284 C 
ATOM     21  O   UNL     1       2.174   6.803 -12.317  0.00  0.00    -0.463 OA
ATOM     22  C   UNL     1       1.412   7.064 -13.463  0.00  0.00    +0.173 A 
ATOM     23  C   UNL     1       1.910   6.577 -14.666  0.00  0.00    +0.172 A 
ATOM     24  C   UNL     1       1.875   7.331 -15.833  0.00  0.00    +0.040 A 
ATOM     25  C   UNL     1       1.088   8.451 -15.883  0.00  0.00    +0.003 A 
ATOM     26  C   UNL     1       0.435   8.848 -14.726  0.00  0.00    +0.003 A 
ATOM     27  O   UNL     1       2.741   5.459 -14.532  0.00  0.00    -0.468 OA
ATOM     28  C   UNL     1       0.614   8.175 -13.526  0.00  0.00    +0.040 A 
ATOM     29  C   UNL     1       3.559   5.265 -13.388  0.00  0.00    +0.258 C 
ENDBRANCH  13  20
BRANCH   1  31
ATOM     30  C   UNL     1       2.323   7.868  -0.031  0.00  0.00    +0.253 C 
ATOM     31  O   UNL     1       2.257   7.267  -0.377  0.00  0.00    -0.468 OA
ENDBRANCH   1  31
BRANCH   2  32
ATOM     32  O   UNL     1       0.007   5.772  -0.631  0.00  0.00    -0.468 OA
ATOM     33  C   UNL     1      -1.232   6.459  -0.689  0.00  0.00    +0.253 C 
ENDBRANCH   2  32
TORSDOF 3
ENDMDL
MODEL 6
REMARK VINA RESULT:      -8.3      3.617      4.676
REMARK  Name = 
REMARK  3 active torsions:
REMARK  status: ('A' for Active; 'I' for Inactive)
REMARK    1  A    between atoms: O_2  and  C_3
REMARK    2  A    between atoms: C_12  and  C_14
REMARK    3  A    between atoms: C_31  and  O_32
REMARK                            x       y       z     vdW  Elec       q    Type
REMARK                         _______ _______ _______ _____ _____    ______ ____
ROOT
ATOM      1  C   UNL     1       5.574   6.704 -10.593  0.00  0.00    +0.174 A 
ATOM      2  C   UNL     1       6.181   5.710  -9.837  0.00  0.00    +0.173 A 
ATOM      3  C   UNL     1       5.586   5.308  -8.660  0.00  0.00    +0.044 A 
ATOM      4  C   UNL     1       4.443   5.900  -8.195  0.00  0.00    +0.056 A 
ATOM      5  C   UNL     1       3.739   6.727  -9.060  0.00  0.00    +0.090 A 
ATOM      6  N   UNL     1       2.489   7.121  -8.714  0.00  0.00    -0.213 NA
ATOM      7  C   UNL     1       2.088   6.985  -7.431  0.00  0.00    +0.221 A 
ATOM      8  N   UNL     1       3.054   6.708  -6.522  0.00  0.00    -0.195 NA
ATOM      9  N   UNL     1       0.695   6.907  -7.091  0.00  0.00    -0.275 N 
ATOM     10  C   UNL     1      -0.071   5.900  -7.753  0.00  0.00    +0.115 C 
ATOM     11  C   UNL     1      -1.077   5.188  -6.932  0.00  0.00    +0.115 C 
ATOM     12  N   UNL     1      -0.943   5.318  -5.511  0.00  0.00    -0.273 N 
ATOM     13  C   UNL     1      -2.100   5.775  -4.788  0.00  0.00    +0.270 C 
ATOM     14  O   UNL     1      -2.149   7.040  -4.671  0.00  0.00    -0.271 OA
ATOM     15  C   UNL     1       0.323   5.856  -5.015  0.00  0.00    +0.115 C 
ATOM     16  C   UNL     1       0.413   7.221  -5.691  0.00  0.00    +0.115 C 
ATOM     17  C   UNL     1       4.163   6.008  -6.854  0.00  0.00    +0.174 A 
ATOM     18  N   UNL     1       4.977   5.360  -5.885  0.00  0.00    -0.107 NA
ATOM     19  C   UNL     1       4.291   7.110 -10.276  0.00  0.00    +0.059 A 
ENDROOT
BRANCH  13  20
ATOM     20  C   UNL     1      -2.061   5.061  -3.298  0.00  0.00    +0.284 C 
ATOM     21  O   UNL     1      -0.890   6.001  -2.828  0.00  0.00    -0.463 OA
ATOM     22  C   UNL     1      -0.721   5.964  -1.439  0.00  0.00    +0.173 A 
ATOM     23  C   UNL     1      -1.838   6.267  -0.668  0.00  0.00    +0.172 A 
ATOM     24  C   UNL     1      -1.750   7.067   0.466  0.00  0.00    +0.040 A 
ATOM     25  C   UNL     1      -0.519   7.330   1.006  0.00  0.00    +0.003 A 
ATOM     26  C   UNL     1       0.605   6.871   0.336  0.00  0.00    +0.003 A 
ATOM     27  O   UNL     1      -3.059   6.014  -1.302  0.00  0.00    -0.468 OA
ATOM     28  C   UNL     1       0.504   6.216  -0.883  0.00  0.00    +0.040 A 
ATOM     29  C   UNL     1      -3.213   6.136  -2.709  0.00  0.00    +0.258 C 
ENDBRANCH  13  20
BRANCH   1  31
ATOM     30  C   UNL     1       6.577   8.186 -11.593  0.00  0.00    +0.253 C 
ATOM     31  O   UNL     1       6.384   7.566 -11.339  0.00  0.00    -0.468 OA
ENDBRANCH   1  31
BRANCH   2  32
ATOM     32  O   UNL     1       7.519   5.423 -10.122  0.00  0.00    -0.468 OA
ATOM     33  C   UNL     1       7.853   4.934 -11.410  0.00  0.00    +0.253 C 
ENDBRANCH   2  32
TORSDOF 3
ENDMDL
MODEL 7
REMARK VINA RESULT:      -8.2      2.809      3.978
REMARK  Name = 
REMARK  3 active torsions:
REMARK  status: ('A' for Active; 'I' for Inactive)
REMARK    1  A    between atoms: O_2  and  C_3
REMARK    2  A    between atoms: C_12  and  C_14
REMARK    3  A    between atoms: C_31  and  O_32
REMARK                            x       y       z     vdW  Elec       q    Type
REMARK                         _______ _______ _______ _____ _____    ______ ____
ROOT
ATOM      1  C   UNL     1       5.371   6.046 -11.796  0.00  0.00    +0.174 A 
ATOM      2  C   UNL     1       4.018   6.021 -12.108  0.00  0.00    +0.173 A 
ATOM      3  C   UNL     1       3.106   5.763 -11.106  0.00  0.00    +0.044 A 
ATOM      4  C   UNL     1       3.505   5.481  -9.827  0.00  0.00    +0.056 A 
ATOM      5  C   UNL     1       4.829   5.725  -9.489  0.00  0.00    +0.090 A 
ATOM      6  N   UNL     1       5.186   5.693  -8.182  0.00  0.00    -0.213 NA
ATOM      7  C   UNL     1       4.354   5.115  -7.287  0.00  0.00    +0.221 A 
ATOM      8  N   UNL     1       3.340   4.374  -7.796  0.00  0.00    -0.195 NA
ATOM      9  N   UNL     1       4.405   5.460  -5.895  0.00  0.00    -0.275 N 
ATOM     10  C   UNL     1       4.279   6.846  -5.572  0.00  0.00    +0.115 C 
ATOM     11  C   UNL     1       3.467   7.175  -4.377  0.00  0.00    +0.115 C 
ATOM     12  N   UNL     1       2.614   6.135  -3.883  0.00  0.00    -0.273 N 
ATOM     13  C   UNL     1       2.752   5.785  -2.494  0.00  0.00    +0.270 C 
ATOM     14  O   UNL     1       3.609   4.868  -2.291  0.00  0.00    -0.271 OA
ATOM     15  C   UNL     1       2.389   4.991  -4.768  0.00  0.00    +0.115 C 
ATOM     16  C   UNL     1       3.798   4.460  -5.018  0.00  0.00    +0.115 C 
ATOM     17  C   UNL     1       2.785   4.657  -8.996  0.00  0.00    +0.174 A 
ATOM     18  N   UNL     1       1.498   4.185  -9.374  0.00  0.00    -0.107 NA
ATOM     19  C   UNL     1       5.763   6.036 -10.470  0.00  0.00    +0.059 A 
ENDROOT
BRANCH  13  20
ATOM     20  C   UNL     1       1.263   5.310  -1.958  0.00  0.00    +0.284 C 
ATOM     21  O   UNL     1       1.323   6.324  -0.756  0.00  0.00    -0.463 OA
ATOM     22  C   UNL     1       0.065   6.504  -0.166  0.00  0.00    +0.173 A 
ATOM     23  C   UNL     1      -0.964   6.911  -1.008  0.00  0.00    +0.172 A 
ATOM     24  C   UNL     1      -1.887   7.877  -0.623  0.00  0.00    +0.040 A 
ATOM     25  C   UNL     1      -1.971   8.233   0.697  0.00  0.00    +0.003 A 
ATOM     26  C   UNL     1      -1.056   7.688   1.585  0.00  0.00    +0.003 A 
ATOM     27  O   UNL     1      -0.787   6.549  -2.348  0.00  0.00    -0.468 OA
ATOM     28  C   UNL     1      -0.037   6.853   1.154  0.00  0.00    +0.040 A 
ATOM     29  C   UNL     1       0.503   6.451  -2.934  0.00  0.00    +0.258 C 
ENDBRANCH  13  20
BRANCH   1  31
ATOM     30  C   UNL     1       6.918   5.448 -13.000  0.00  0.00    +0.253 C 
ATOM     31  O   UNL     1       6.289   5.638 -12.769  0.00  0.00    -0.468 OA
ENDBRANCH   1  31
BRANCH   2  32
ATOM     32  O   UNL     1       3.678   5.910 -13.459  0.00  0.00    -0.468 OA
ATOM     33  C   UNL     1       2.337   5.606 -13.803  0.00  0.00    +0.253 C 
ENDBRANCH   2  32
TORSDOF 3
ENDMDL
MODEL 8
REMARK VINA RESULT:      -8.2      4.005     10.020
REMARK  Name = 
REMARK  3 active torsions:
REMARK  status: ('A' for Active; 'I' for Inactive)
REMARK    1  A    between atoms: O_2  and  C_3
REMARK    2  A    between atoms: C_12  and  C_14
REMARK    3  A    between atoms: C_31  and  O_32
REMARK                            x       y       z     vdW  Elec       q    Type
REMARK                         _______ _______ _______ _____ _____    ______ ____
ROOT
ATOM      1  C   UNL     1      -0.968   6.782  -4.766  0.00  0.00    +0.174 A 
ATOM      2  C   UNL     1      -1.570   5.725  -5.436  0.00  0.00    +0.173 A 
ATOM      3  C   UNL     1      -1.015   5.281  -6.618  0.00  0.00    +0.044 A 
ATOM      4  C   UNL     1       0.081   5.889  -7.170  0.00  0.00    +0.056 A 
ATOM      5  C   UNL     1       0.791   6.788  -6.386  0.00  0.00    +0.090 A 
ATOM      6  N   UNL     1       2.006   7.209  -6.814  0.00  0.00    -0.213 NA
ATOM      7  C   UNL     1       2.352   7.018  -8.106  0.00  0.00    +0.221 A 
ATOM      8  N   UNL     1       1.355   6.655  -8.950  0.00  0.00    -0.195 NA
ATOM      9  N   UNL     1       3.729   6.973  -8.509  0.00  0.00    -0.275 N 
ATOM     10  C   UNL     1       4.565   6.034  -7.832  0.00  0.00    +0.115 C 
ATOM     11  C   UNL     1       5.559   5.316  -8.663  0.00  0.00    +0.115 C 
ATOM     12  N   UNL     1       5.354   5.361 -10.080  0.00  0.00    -0.273 N 
ATOM     13  C   UNL     1       6.456   5.821 -10.883  0.00  0.00    +0.270 C 
ATOM     14  O   UNL     1       6.449   7.078 -11.069  0.00  0.00    -0.271 OA
ATOM     15  C   UNL     1       4.045   5.823 -10.541  0.00  0.00    +0.115 C 
ATOM     16  C   UNL     1       3.932   7.220  -9.936  0.00  0.00    +0.115 C 
ATOM     17  C   UNL     1       0.293   5.933  -8.527  0.00  0.00    +0.174 A 
ATOM     18  N   UNL     1      -0.540   5.202  -9.419  0.00  0.00    -0.107 NA
ATOM     19  C   UNL     1       0.282   7.218  -5.167  0.00  0.00    +0.059 A 
ENDROOT
BRANCH  13  20
ATOM     20  C   UNL     1       6.376   5.024 -12.329  0.00  0.00    +0.284 C 
ATOM     21  O   UNL     1       5.638   6.237 -13.007  0.00  0.00    -0.463 OA
ATOM     22  C   UNL     1       5.641   6.131 -14.403  0.00  0.00    +0.173 A 
ATOM     23  C   UNL     1       6.884   5.999 -15.014  0.00  0.00    +0.172 A 
ATOM     24  C   UNL     1       7.201   6.682 -16.184  0.00  0.00    +0.040 A 
ATOM     25  C   UNL     1       6.198   7.267 -16.909  0.00  0.00    +0.003 A 
ATOM     26  C   UNL     1       4.911   7.244 -16.393  0.00  0.00    +0.003 A 
ATOM     27  O   UNL     1       7.869   5.435 -14.197  0.00  0.00    -0.468 OA
ATOM     28  C   UNL     1       4.643   6.702 -15.144  0.00  0.00    +0.040 A 
ATOM     29  C   UNL     1       7.877   5.628 -12.789  0.00  0.00    +0.258 C 
ENDBRANCH  13  20
BRANCH   1  31
ATOM     30  C   UNL     1      -1.992   8.279  -3.811  0.00  0.00    +0.253 C 
ATOM     31  O   UNL     1      -1.776   7.653  -4.028  0.00  0.00    -0.468 OA
ENDBRANCH   1  31
BRANCH   2  32
ATOM     32  O   UNL     1      -2.880   5.404  -5.072  0.00  0.00    -0.468 OA
ATOM     33  C   UNL     1      -3.136   4.992  -3.739  0.00  0.00    +0.253 C 
ENDBRANCH   2  32
TORSDOF 3
ENDMDL
MODEL 9
REMARK VINA RESULT:      -8.2      3.799      5.527
REMARK  Name = 
REMARK  3 active torsions:
REMARK  status: ('A' for Active; 'I' for Inactive)
REMARK    1  A    between atoms: O_2  and  C_3
REMARK    2  A    between atoms: C_12  and  C_14
REMARK    3  A    between atoms: C_31  and  O_32
REMARK                            x       y       z     vdW  Elec       q    Type
REMARK                         _______ _______ _______ _____ _____    ______ ____
ROOT
ATOM      1  C   UNL     1       6.402   7.323 -15.974  0.00  0.00    +0.174 A 
ATOM      2  C   UNL     1       5.136   7.075 -16.488  0.00  0.00    +0.173 A 
ATOM      3  C   UNL     1       4.172   6.539 -15.660  0.00  0.00    +0.044 A 
ATOM      4  C   UNL     1       4.449   6.199 -14.363  0.00  0.00    +0.056 A 
ATOM      5  C   UNL     1       5.639   6.651 -13.810  0.00  0.00    +0.090 A 
ATOM      6  N   UNL     1       5.819   6.542 -12.471  0.00  0.00    -0.213 NA
ATOM      7  C   UNL     1       5.013   5.722 -11.763  0.00  0.00    +0.221 A 
ATOM      8  N   UNL     1       4.247   4.862 -12.478  0.00  0.00    -0.195 NA
ATOM      9  N   UNL     1       4.808   5.914 -10.355  0.00  0.00    -0.275 N 
ATOM     10  C   UNL     1       4.360   7.206  -9.942  0.00  0.00    +0.115 C 
ATOM     11  C   UNL     1       3.348   7.240  -8.861  0.00  0.00    +0.115 C 
ATOM     12  N   UNL     1       2.668   6.008  -8.589  0.00  0.00    -0.273 N 
ATOM     13  C   UNL     1       2.691   5.540  -7.228  0.00  0.00    +0.270 C 
ATOM     14  O   UNL     1       3.683   4.786  -6.975  0.00  0.00    -0.271 OA
ATOM     15  C   UNL     1       2.800   4.948  -9.588  0.00  0.00    +0.115 C 
ATOM     16  C   UNL     1       4.308   4.725  -9.666  0.00  0.00    +0.115 C 
ATOM     17  C   UNL     1       3.809   5.166 -13.721  0.00  0.00    +0.174 A 
ATOM     18  N   UNL     1       2.706   4.502 -14.326  0.00  0.00    -0.107 NA
ATOM     19  C   UNL     1       6.610   7.241 -14.610  0.00  0.00    +0.059 A 
ENDROOT
BRANCH  13  20
ATOM     20  C   UNL     1       1.272   4.733  -6.964  0.00  0.00    +0.284 C 
ATOM     21  O   UNL     1       1.050   5.482  -5.597  0.00  0.00    -0.463 OA
ATOM     22  C   UNL     1      -0.263   5.335  -5.134  0.00  0.00    +0.173 A 
ATOM     23  C   UNL     1      -1.276   5.732  -6.000  0.00  0.00    +0.172 A 
ATOM     24  C   UNL     1      -2.386   6.440  -5.553  0.00  0.00    +0.040 A 
ATOM     25  C   UNL     1      -2.641   6.506  -4.209  0.00  0.00    +0.003 A 
ATOM     26  C   UNL     1      -1.720   5.948  -3.336  0.00  0.00    +0.003 A 
ATOM     27  O   UNL     1      -0.927   5.680  -7.354  0.00  0.00    -0.468 OA
ATOM     28  C   UNL     1      -0.535   5.391  -3.793  0.00  0.00    +0.040 A 
ATOM     29  C   UNL     1       0.403   5.910  -7.795  0.00  0.00    +0.258 C 
ENDBRANCH  13  20
BRANCH   1  31
ATOM     30  C   UNL     1       8.088   7.431 -17.134  0.00  0.00    +0.253 C 
ATOM     31  O   UNL     1       7.504   7.208 -16.828  0.00  0.00    -0.468 OA
ENDBRANCH   1  31
BRANCH   2  32
ATOM     32  O   UNL     1       5.007   7.052 -17.879  0.00  0.00    -0.468 OA
ATOM     33  C   UNL     1       4.435   8.174 -18.531  0.00  0.00    +0.253 C 
ENDBRANCH   2  32
TORSDOF 3
ENDMDL
