MODEL 1
REMARK VINA RESULT:      -9.1      0.000      0.000
REMARK  Name = 
REMARK  6 active torsions:
REMARK  status: ('A' for Active; 'I' for Inactive)
REMARK    1  A    between atoms: C_2  and  C_3
REMARK    2  A    between atoms: C_2  and  C_22
REMARK    3  A    between atoms: C_3  and  C_4
REMARK    4  A    between atoms: C_4  and  C_5
REMARK    5  A    between atoms: C_5  and  N_6
REMARK    6  A    between atoms: C_9  and  N_10
REMARK                            x       y       z     vdW  Elec       q    Type
REMARK                         _______ _______ _______ _____ _____    ______ ____
ROOT
ATOM      1  N   UNL     1       3.160   5.590 -10.154  0.00  0.00    -0.269 NA
ATOM      2  C   UNL     1       2.848   6.887  -9.619  0.00  0.00    +0.079 C 
ATOM      3  C   UNL     1       3.056   7.000  -8.137  0.00  0.00    +0.061 C 
ATOM      4  C   UNL     1       3.678   5.781  -7.547  0.00  0.00    +0.044 C 
ATOM      5  C   UNL     1       4.622   5.192  -8.252  0.00  0.00    +0.004 C 
ATOM      6  C   UNL     1       4.454   5.092  -9.725  0.00  0.00    +0.100 C 
ENDROOT
BRANCH   4   7
ATOM      7  N   UNL     1       3.363   5.395  -6.203  0.00  0.00    -0.261 N 
ATOM      8  C   UNL     1       3.800   6.081  -5.120  0.00  0.00    +0.086 A 
ATOM      9  C   UNL     1       3.004   5.794  -4.023  0.00  0.00    +0.102 A 
ATOM     10  C   UNL     1       3.039   6.689  -2.961  0.00  0.00    +0.021 A 
ATOM     11  C   UNL     1       3.867   7.795  -2.950  0.00  0.00    +0.002 A 
ATOM     12  C   UNL     1       4.910   7.831  -3.860  0.00  0.00    +0.002 A 
ATOM     13  N   UNL     1       1.984   5.061  -4.526  0.00  0.00    -0.191 NA
ATOM     14  C   UNL     1       4.803   7.026  -4.984  0.00  0.00    +0.019 A 
ATOM     15  C   UNL     1       2.117   4.988  -5.868  0.00  0.00    +0.354 A 
ATOM     16  O   UNL     1       1.260   4.512  -6.668  0.00  0.00    -0.244 OA
ENDBRANCH   4   7
BRANCH   1  17
ATOM     17  C   UNL     1       3.239   5.721 -11.606  0.00  0.00    +0.073 C 
BRANCH  17  18
ATOM     18  C   UNL     1       4.526   5.157 -12.155  0.00  0.00    +0.025 C 
BRANCH  18  19
ATOM     19  C   UNL     1       4.691   5.407 -13.627  0.00  0.00    +0.071 C 
BRANCH  19  21
ATOM     20  O   UNL     1       5.760   6.835 -15.132  0.00  0.00    -0.291 OA
ATOM     21  C   UNL     1       5.634   6.533 -13.907  0.00  0.00    +0.173 C 
BRANCH  21  22
ATOM     22  C   UNL     1       6.736   6.792 -12.971  0.00  0.00    +0.035 A 
ATOM     23  C   UNL     1       7.815   5.919 -12.876  0.00  0.00    +0.005 A 
ATOM     24  C   UNL     1       8.462   5.688 -11.668  0.00  0.00    +0.030 A 
ATOM     25  C   UNL     1       7.942   6.221 -10.495  0.00  0.00    +0.140 A 
ATOM     26  F   UNL     1       7.882   5.500  -9.338  0.00  0.00    -0.204 F 
ATOM     27  C   UNL     1       7.190   7.380 -10.657  0.00  0.00    +0.030 A 
ATOM     28  C   UNL     1       6.585   7.641 -11.881  0.00  0.00    +0.005 A 
ENDBRANCH  21  22
ENDBRANCH  19  21
ENDBRANCH  18  19
ENDBRANCH  17  18
ENDBRANCH   1  17
TORSDOF 6
ENDMDL
MODEL 2
REMARK VINA RESULT:      -9.1      3.265      8.256
REMARK  Name = 
REMARK  6 active torsions:
REMARK  status: ('A' for Active; 'I' for Inactive)
REMARK    1  A    between atoms: C_2  and  C_3
REMARK    2  A    between atoms: C_2  and  C_22
REMARK    3  A    between atoms: C_3  and  C_4
REMARK    4  A    between atoms: C_4  and  C_5
REMARK    5  A    between atoms: C_5  and  N_6
REMARK    6  A    between atoms: C_9  and  N_10
REMARK                            x       y       z     vdW  Elec       q    Type
REMARK                         _______ _______ _______ _____ _____    ______ ____
ROOT
ATOM      1  N   UNL     1       4.105   6.554  -7.073  0.00  0.00    -0.269 NA
ATOM      2  C   UNL     1       2.909   7.131  -7.622  0.00  0.00    +0.079 C 
ATOM      3  C   UNL     1       2.791   6.985  -9.111  0.00  0.00    +0.061 C 
ATOM      4  C   UNL     1       3.876   6.146  -9.696  0.00  0.00    +0.044 C 
ATOM      5  C   UNL     1       4.248   5.087  -9.007  0.00  0.00    +0.004 C 
ATOM      6  C   UNL     1       4.345   5.197  -7.528  0.00  0.00    +0.100 C 
ENDROOT
BRANCH   4   7
ATOM      7  N   UNL     1       4.348   6.409 -11.023  0.00  0.00    -0.261 N 
ATOM      8  C   UNL     1       5.664   6.416 -11.347  0.00  0.00    +0.086 A 
ATOM      9  C   UNL     1       5.818   6.234 -12.711  0.00  0.00    +0.102 A 
ATOM     10  C   UNL     1       7.063   5.809 -13.158  0.00  0.00    +0.021 A 
ATOM     11  C   UNL     1       8.135   5.626 -12.306  0.00  0.00    +0.002 A 
ATOM     12  C   UNL     1       8.058   6.187 -11.042  0.00  0.00    +0.002 A 
ATOM     13  N   UNL     1       4.575   5.943 -13.158  0.00  0.00    -0.191 NA
ATOM     14  C   UNL     1       6.796   6.488 -10.554  0.00  0.00    +0.019 A 
ATOM     15  C   UNL     1       3.735   5.869 -12.102  0.00  0.00    +0.354 A 
ATOM     16  O   UNL     1       2.536   5.468 -12.140  0.00  0.00    -0.244 OA
ENDBRANCH   4   7
BRANCH   1  17
ATOM     17  C   UNL     1       3.927   6.469  -5.626  0.00  0.00    +0.073 C 
BRANCH  17  18
ATOM     18  C   UNL     1       3.514   5.085  -5.189  0.00  0.00    +0.025 C 
BRANCH  18  19
ATOM     19  C   UNL     1       2.165   5.062  -4.526  0.00  0.00    +0.071 C 
BRANCH  19  21
ATOM     20  O   UNL     1       1.377   3.842  -6.352  0.00  0.00    -0.291 OA
ATOM     21  C   UNL     1       1.072   4.714  -5.483  0.00  0.00    +0.173 C 
BRANCH  21  22
ATOM     22  C   UNL     1       0.036   5.713  -5.780  0.00  0.00    +0.035 A 
ATOM     23  C   UNL     1       0.027   6.947  -5.140  0.00  0.00    +0.005 A 
ATOM     24  C   UNL     1      -1.161   7.596  -4.824  0.00  0.00    +0.030 A 
ATOM     25  C   UNL     1      -2.374   6.946  -5.015  0.00  0.00    +0.140 A 
ATOM     26  F   UNL     1      -3.379   7.007  -4.095  0.00  0.00    -0.204 F 
ATOM     27  C   UNL     1      -2.369   5.973  -6.009  0.00  0.00    +0.030 A 
ATOM     28  C   UNL     1      -1.174   5.359  -6.365  0.00  0.00    +0.005 A 
ENDBRANCH  21  22
ENDBRANCH  19  21
ENDBRANCH  18  19
ENDBRANCH  17  18
ENDBRANCH   1  17
TORSDOF 6
ENDMDL
MODEL 3
REMARK VINA RESULT:      -9.0      3.774      8.760
REMARK  Name = 
REMARK  6 active torsions:
REMARK  status: ('A' for Active; 'I' for Inactive)
REMARK    1  A    between atoms: C_2  and  C_3
REMARK    2  A    between atoms: C_2  and  C_22
REMARK    3  A    between atoms: C_3  and  C_4
REMARK    4  A    between atoms: C_4  and  C_5
REMARK    5  A    between atoms: C_5  and  N_6
REMARK    6  A    between atoms: C_9  and  N_10
REMARK                            x       y       z     vdW  Elec       q    Type
REMARK                         _______ _______ _______ _____ _____    ______ ____
ROOT
ATOM      1  N   UNL     1       3.423   5.340  -7.273  0.00  0.00    -0.269 NA
ATOM      2  C   UNL     1       2.908   6.658  -7.520  0.00  0.00    +0.079 C 
ATOM      3  C   UNL     1       2.943   7.065  -8.965  0.00  0.00    +0.061 C 
ATOM      4  C   UNL     1       3.378   5.959  -9.865  0.00  0.00    +0.044 C 
ATOM      5  C   UNL     1       2.936   4.751  -9.582  0.00  0.00    +0.004 C 
ATOM      6  C   UNL     1       2.864   4.334  -8.157  0.00  0.00    +0.100 C 
ENDROOT
BRANCH   4   7
ATOM      7  N   UNL     1       4.099   6.256 -11.067  0.00  0.00    -0.261 N 
ATOM      8  C   UNL     1       5.447   6.148 -11.160  0.00  0.00    +0.086 A 
ATOM      9  C   UNL     1       5.823   6.037 -12.488  0.00  0.00    +0.102 A 
ATOM     10  C   UNL     1       7.085   5.516 -12.750  0.00  0.00    +0.021 A 
ATOM     11  C   UNL     1       7.968   5.171 -11.745  0.00  0.00    +0.002 A 
ATOM     12  C   UNL     1       7.719   5.656 -10.472  0.00  0.00    +0.002 A 
ATOM     13  N   UNL     1       4.658   5.904 -13.162  0.00  0.00    -0.191 NA
ATOM     14  C   UNL     1       6.423   6.054 -10.183  0.00  0.00    +0.019 A 
ATOM     15  C   UNL     1       3.642   5.850 -12.274  0.00  0.00    +0.354 A 
ATOM     16  O   UNL     1       2.437   5.577 -12.548  0.00  0.00    -0.244 OA
ENDBRANCH   4   7
BRANCH   1  17
ATOM     17  C   UNL     1       3.023   4.958  -5.922  0.00  0.00    +0.073 C 
BRANCH  17  18
ATOM     18  C   UNL     1       1.668   4.293  -5.902  0.00  0.00    +0.025 C 
BRANCH  18  19
ATOM     19  C   UNL     1       0.674   5.024  -5.043  0.00  0.00    +0.071 C 
BRANCH  19  21
ATOM     20  O   UNL     1      -0.412   5.531  -7.045  0.00  0.00    -0.291 OA
ATOM     21  C   UNL     1      -0.566   5.382  -5.795  0.00  0.00    +0.173 C 
BRANCH  21  22
ATOM     22  C   UNL     1      -1.642   6.101  -5.099  0.00  0.00    +0.035 A 
ATOM     23  C   UNL     1      -1.498   7.438  -4.746  0.00  0.00    +0.005 A 
ATOM     24  C   UNL     1      -2.062   7.951  -3.584  0.00  0.00    +0.030 A 
ATOM     25  C   UNL     1      -2.664   7.092  -2.673  0.00  0.00    +0.140 A 
ATOM     26  F   UNL     1      -2.478   7.221  -1.327  0.00  0.00    -0.204 F 
ATOM     27  C   UNL     1      -3.169   5.916  -3.217  0.00  0.00    +0.030 A 
ATOM     28  C   UNL     1      -2.643   5.428  -4.407  0.00  0.00    +0.005 A 
ENDBRANCH  21  22
ENDBRANCH  19  21
ENDBRANCH  18  19
ENDBRANCH  17  18
ENDBRANCH   1  17
TORSDOF 6
ENDMDL
MODEL 4
REMARK VINA RESULT:      -9.0      4.178      9.121
REMARK  Name = 
REMARK  6 active torsions:
REMARK  status: ('A' for Active; 'I' for Inactive)
REMARK    1  A    between atoms: C_2  and  C_3
REMARK    2  A    between atoms: C_2  and  C_22
REMARK    3  A    between atoms: C_3  and  C_4
REMARK    4  A    between atoms: C_4  and  C_5
REMARK    5  A    between atoms: C_5  and  N_6
REMARK    6  A    between atoms: C_9  and  N_10
REMARK                            x       y       z     vdW  Elec       q    Type
REMARK                         _______ _______ _______ _____ _____    ______ ____
ROOT
ATOM      1  N   UNL     1       2.936   6.371  -3.534  0.00  0.00    -0.269 NA
ATOM      2  C   UNL     1       3.725   5.177  -3.409  0.00  0.00    +0.079 C 
ATOM      3  C   UNL     1       4.117   4.567  -4.724  0.00  0.00    +0.061 C 
ATOM      4  C   UNL     1       3.724   5.407  -5.890  0.00  0.00    +0.044 C 
ATOM      5  C   UNL     1       3.859   6.712  -5.758  0.00  0.00    +0.004 C 
ATOM      6  C   UNL     1       3.504   7.336  -4.457  0.00  0.00    +0.100 C 
ENDROOT
BRANCH   4   7
ATOM      7  N   UNL     1       3.384   4.788  -7.137  0.00  0.00    -0.261 N 
ATOM      8  C   UNL     1       2.140   4.846  -7.670  0.00  0.00    +0.086 A 
ATOM      9  C   UNL     1       2.194   4.591  -9.030  0.00  0.00    +0.102 A 
ATOM     10  C   UNL     1       1.111   5.002  -9.797  0.00  0.00    +0.021 A 
ATOM     11  C   UNL     1      -0.010   5.591  -9.244  0.00  0.00    +0.002 A 
ATOM     12  C   UNL     1      -0.195   5.468  -7.876  0.00  0.00    +0.002 A 
ATOM     13  N   UNL     1       3.515   4.557  -9.317  0.00  0.00    -0.191 NA
ATOM     14  C   UNL     1       0.921   5.183  -7.105  0.00  0.00    +0.019 A 
ATOM     15  C   UNL     1       4.214   4.862  -8.202  0.00  0.00    +0.354 A 
ATOM     16  O   UNL     1       5.461   5.071  -8.148  0.00  0.00    -0.244 OA
ENDBRANCH   4   7
BRANCH   1  17
ATOM     17  C   UNL     1       2.918   7.024  -2.228  0.00  0.00    +0.073 C 
BRANCH  17  18
ATOM     18  C   UNL     1       2.311   6.142  -1.164  0.00  0.00    +0.025 C 
BRANCH  18  19
ATOM     19  C   UNL     1       0.883   6.498  -0.858  0.00  0.00    +0.071 C 
BRANCH  19  21
ATOM     20  O   UNL     1       0.361   4.355  -1.617  0.00  0.00    -0.291 OA
ATOM     21  C   UNL     1      -0.082   5.533  -1.465  0.00  0.00    +0.173 C 
BRANCH  21  22
ATOM     22  C   UNL     1      -1.137   6.040  -2.354  0.00  0.00    +0.035 A 
ATOM     23  C   UNL     1      -2.396   5.451  -2.380  0.00  0.00    +0.005 A 
ATOM     24  C   UNL     1      -3.139   5.370  -3.552  0.00  0.00    +0.030 A 
ATOM     25  C   UNL     1      -2.566   5.752  -4.759  0.00  0.00    +0.140 A 
ATOM     26  F   UNL     1      -2.738   5.026  -5.901  0.00  0.00    -0.204 F 
ATOM     27  C   UNL     1      -1.552   6.698  -4.656  0.00  0.00    +0.030 A 
ATOM     28  C   UNL     1      -0.841   6.818  -3.468  0.00  0.00    +0.005 A 
ENDBRANCH  21  22
ENDBRANCH  19  21
ENDBRANCH  18  19
ENDBRANCH  17  18
ENDBRANCH   1  17
TORSDOF 6
ENDMDL
MODEL 5
REMARK VINA RESULT:      -8.9      2.082      7.463
REMARK  Name = 
REMARK  6 active torsions:
REMARK  status: ('A' for Active; 'I' for Inactive)
REMARK    1  A    between atoms: C_2  and  C_3
REMARK    2  A    between atoms: C_2  and  C_22
REMARK    3  A    between atoms: C_3  and  C_4
REMARK    4  A    between atoms: C_4  and  C_5
REMARK    5  A    between atoms: C_5  and  N_6
REMARK    6  A    between atoms: C_9  and  N_10
REMARK                            x       y       z     vdW  Elec       q    Type
REMARK                         _______ _______ _______ _____ _____    ______ ____
ROOT
ATOM      1  N   UNL     1       1.076   5.467  -8.310  0.00  0.00    -0.269 NA
ATOM      2  C   UNL     1       2.035   4.399  -8.249  0.00  0.00    +0.079 C 
ATOM      3  C   UNL     1       3.312   4.685  -8.986  0.00  0.00    +0.061 C 
ATOM      4  C   UNL     1       3.376   6.078  -9.512  0.00  0.00    +0.044 C 
ATOM      5  C   UNL     1       2.890   7.030  -8.741  0.00  0.00    +0.004 C 
ATOM      6  C   UNL     1       1.642   6.762  -7.979  0.00  0.00    +0.100 C 
ENDROOT
BRANCH   4   7
ATOM      7  N   UNL     1       4.089   6.354 -10.723  0.00  0.00    -0.261 N 
ATOM      8  C   UNL     1       5.434   6.223 -10.829  0.00  0.00    +0.086 A 
ATOM      9  C   UNL     1       5.795   6.097 -12.161  0.00  0.00    +0.102 A 
ATOM     10  C   UNL     1       7.044   5.553 -12.431  0.00  0.00    +0.021 A 
ATOM     11  C   UNL     1       7.932   5.198 -11.433  0.00  0.00    +0.002 A 
ATOM     12  C   UNL     1       7.705   5.696 -10.161  0.00  0.00    +0.002 A 
ATOM     13  N   UNL     1       4.620   5.980 -12.821  0.00  0.00    -0.191 NA
ATOM     14  C   UNL     1       6.418   6.118  -9.861  0.00  0.00    +0.019 A 
ATOM     15  C   UNL     1       3.612   5.949 -11.922  0.00  0.00    +0.354 A 
ATOM     16  O   UNL     1       2.400   5.695 -12.182  0.00  0.00    -0.244 OA
ENDBRANCH   4   7
BRANCH   1  17
ATOM     17  C   UNL     1       0.057   5.201  -7.298  0.00  0.00    +0.073 C 
BRANCH  17  18
ATOM     18  C   UNL     1       0.659   4.688  -6.013  0.00  0.00    +0.025 C 
BRANCH  18  19
ATOM     19  C   UNL     1       0.161   5.425  -4.802  0.00  0.00    +0.071 C 
BRANCH  19  21
ATOM     20  O   UNL     1       0.521   5.295  -2.500  0.00  0.00    -0.291 OA
ATOM     21  C   UNL     1       1.085   5.287  -3.636  0.00  0.00    +0.173 C 
BRANCH  21  22
ATOM     22  C   UNL     1       2.475   5.744  -3.767  0.00  0.00    +0.035 A 
ATOM     23  C   UNL     1       2.772   6.993  -4.300  0.00  0.00    +0.005 A 
ATOM     24  C   UNL     1       3.912   7.208  -5.064  0.00  0.00    +0.030 A 
ATOM     25  C   UNL     1       4.709   6.131  -5.433  0.00  0.00    +0.140 A 
ATOM     26  F   UNL     1       5.226   6.011  -6.690  0.00  0.00    -0.204 F 
ATOM     27  C   UNL     1       4.658   5.040  -4.572  0.00  0.00    +0.030 A 
ATOM     28  C   UNL     1       3.541   4.850  -3.766  0.00  0.00    +0.005 A 
ENDBRANCH  21  22
ENDBRANCH  19  21
ENDBRANCH  18  19
ENDBRANCH  17  18
ENDBRANCH   1  17
TORSDOF 6
ENDMDL
MODEL 6
REMARK VINA RESULT:      -8.9      4.056      9.334
REMARK  Name = 
REMARK  6 active torsions:
REMARK  status: ('A' for Active; 'I' for Inactive)
REMARK    1  A    between atoms: C_2  and  C_3
REMARK    2  A    between atoms: C_2  and  C_22
REMARK    3  A    between atoms: C_3  and  C_4
REMARK    4  A    between atoms: C_4  and  C_5
REMARK    5  A    between atoms: C_5  and  N_6
REMARK    6  A    between atoms: C_9  and  N_10
REMARK                            x       y       z     vdW  Elec       q    Type
REMARK                         _______ _______ _______ _____ _____    ______ ____
ROOT
ATOM      1  N   UNL     1       1.657   5.908  -4.159  0.00  0.00    -0.269 NA
ATOM      2  C   UNL     1       1.305   7.091  -4.895  0.00  0.00    +0.079 C 
ATOM      3  C   UNL     1       1.243   6.887  -6.381  0.00  0.00    +0.061 C 
ATOM      4  C   UNL     1       1.424   5.461  -6.776  0.00  0.00    +0.044 C 
ATOM      5  C   UNL     1       0.852   4.553  -6.011  0.00  0.00    +0.004 C 
ATOM      6  C   UNL     1       0.874   4.746  -4.537  0.00  0.00    +0.100 C 
ENDROOT
BRANCH   4   7
ATOM      7  N   UNL     1       2.048   5.137  -8.024  0.00  0.00    -0.261 N 
ATOM      8  C   UNL     1       1.477   5.406  -9.223  0.00  0.00    +0.086 A 
ATOM      9  C   UNL     1       2.443   5.427 -10.215  0.00  0.00    +0.102 A 
ATOM     10  C   UNL     1       2.121   6.075 -11.401  0.00  0.00    +0.021 A 
ATOM     11  C   UNL     1       0.878   6.632 -11.629  0.00  0.00    +0.002 A 
ATOM     12  C   UNL     1      -0.162   6.252 -10.796  0.00  0.00    +0.002 A 
ATOM     13  N   UNL     1       3.617   5.340  -9.548  0.00  0.00    -0.191 NA
ATOM     14  C   UNL     1       0.172   5.724  -9.559  0.00  0.00    +0.019 A 
ATOM     15  C   UNL     1       3.369   5.354  -8.220  0.00  0.00    +0.354 A 
ATOM     16  O   UNL     1       4.242   5.441  -7.308  0.00  0.00    -0.244 OA
ENDBRANCH   4   7
BRANCH   1  17
ATOM     17  C   UNL     1       1.353   6.160  -2.753  0.00  0.00    +0.073 C 
BRANCH  17  18
ATOM     18  C   UNL     1       0.477   5.081  -2.164  0.00  0.00    +0.025 C 
BRANCH  18  19
ATOM     19  C   UNL     1      -0.490   5.610  -1.142  0.00  0.00    +0.071 C 
BRANCH  19  21
ATOM     20  O   UNL     1      -1.334   7.742  -0.712  0.00  0.00    -0.291 OA
ATOM     21  C   UNL     1      -1.175   6.855  -1.604  0.00  0.00    +0.173 C 
BRANCH  21  22
ATOM     22  C   UNL     1      -2.108   6.780  -2.736  0.00  0.00    +0.035 A 
ATOM     23  C   UNL     1      -2.673   5.569  -3.120  0.00  0.00    +0.005 A 
ATOM     24  C   UNL     1      -2.945   5.280  -4.452  0.00  0.00    +0.030 A 
ATOM     25  C   UNL     1      -2.518   6.150  -5.447  0.00  0.00    +0.140 A 
ATOM     26  F   UNL     1      -1.960   5.701  -6.608  0.00  0.00    -0.204 F 
ATOM     27  C   UNL     1      -2.376   7.476  -5.049  0.00  0.00    +0.030 A 
ATOM     28  C   UNL     1      -2.157   7.772  -3.709  0.00  0.00    +0.005 A 
ENDBRANCH  21  22
ENDBRANCH  19  21
ENDBRANCH  18  19
ENDBRANCH  17  18
ENDBRANCH   1  17
TORSDOF 6
ENDMDL
MODEL 7
REMARK VINA RESULT:      -8.8      3.961      8.950
REMARK  Name = 
REMARK  6 active torsions:
REMARK  status: ('A' for Active; 'I' for Inactive)
REMARK    1  A    between atoms: C_2  and  C_3
REMARK    2  A    between atoms: C_2  and  C_22
REMARK    3  A    between atoms: C_3  and  C_4
REMARK    4  A    between atoms: C_4  and  C_5
REMARK    5  A    between atoms: C_5  and  N_6
REMARK    6  A    between atoms: C_9  and  N_10
REMARK                            x       y       z     vdW  Elec       q    Type
REMARK                         _______ _______ _______ _____ _____    ______ ____
ROOT
ATOM      1  N   UNL     1       2.187   4.847  -7.083  0.00  0.00    -0.269 NA
ATOM      2  C   UNL     1       2.575   3.783  -7.967  0.00  0.00    +0.079 C 
ATOM      3  C   UNL     1       3.675   4.154  -8.920  0.00  0.00    +0.061 C 
ATOM      4  C   UNL     1       4.234   5.510  -8.655  0.00  0.00    +0.044 C 
ATOM      5  C   UNL     1       4.375   5.862  -7.393  0.00  0.00    +0.004 C 
ATOM      6  C   UNL     1       3.313   5.481  -6.425  0.00  0.00    +0.100 C 
ENDROOT
BRANCH   4   7
ATOM      7  N   UNL     1       4.742   6.299  -9.738  0.00  0.00    -0.261 N 
ATOM      8  C   UNL     1       6.017   6.199 -10.185  0.00  0.00    +0.086 A 
ATOM      9  C   UNL     1       6.108   6.695 -11.475  0.00  0.00    +0.102 A 
ATOM     10  C   UNL     1       7.210   6.308 -12.228  0.00  0.00    +0.021 A 
ATOM     11  C   UNL     1       8.215   5.510 -11.717  0.00  0.00    +0.002 A 
ATOM     12  C   UNL     1       8.289   5.366 -10.341  0.00  0.00    +0.002 A 
ATOM     13  N   UNL     1       4.827   6.927 -11.841  0.00  0.00    -0.191 NA
ATOM     14  C   UNL     1       7.142   5.632  -9.610  0.00  0.00    +0.019 A 
ATOM     15  C   UNL     1       4.006   6.508 -10.854  0.00  0.00    +0.354 A 
ATOM     16  O   UNL     1       2.745   6.434 -10.926  0.00  0.00    -0.244 OA
ENDBRANCH   4   7
BRANCH   1  17
ATOM     17  C   UNL     1       1.376   4.260  -6.020  0.00  0.00    +0.073 C 
BRANCH  17  18
ATOM     18  C   UNL     1       0.709   5.315  -5.171  0.00  0.00    +0.025 C 
BRANCH  18  19
ATOM     19  C   UNL     1      -0.297   6.127  -5.938  0.00  0.00    +0.071 C 
BRANCH  19  21
ATOM     20  O   UNL     1      -2.384   5.386  -6.671  0.00  0.00    -0.291 OA
ATOM     21  C   UNL     1      -1.701   5.705  -5.651  0.00  0.00    +0.173 C 
BRANCH  21  22
ATOM     22  C   UNL     1      -2.373   6.223  -4.452  0.00  0.00    +0.035 A 
ATOM     23  C   UNL     1      -2.139   7.518  -4.003  0.00  0.00    +0.005 A 
ATOM     24  C   UNL     1      -2.136   7.830  -2.649  0.00  0.00    +0.030 A 
ATOM     25  C   UNL     1      -2.225   6.814  -1.706  0.00  0.00    +0.140 A 
ATOM     26  F   UNL     1      -1.456   6.804  -0.579  0.00  0.00    -0.204 F 
ATOM     27  C   UNL     1      -2.875   5.663  -2.141  0.00  0.00    +0.030 A 
ATOM     28  C   UNL     1      -2.925   5.374  -3.499  0.00  0.00    +0.005 A 
ENDBRANCH  21  22
ENDBRANCH  19  21
ENDBRANCH  18  19
ENDBRANCH  17  18
ENDBRANCH   1  17
TORSDOF 6
ENDMDL
MODEL 8
REMARK VINA RESULT:      -8.8      3.551      8.717
REMARK  Name = 
REMARK  6 active torsions:
REMARK  status: ('A' for Active; 'I' for Inactive)
REMARK    1  A    between atoms: C_2  and  C_3
REMARK    2  A    between atoms: C_2  and  C_22
REMARK    3  A    between atoms: C_3  and  C_4
REMARK    4  A    between atoms: C_4  and  C_5
REMARK    5  A    between atoms: C_5  and  N_6
REMARK    6  A    between atoms: C_9  and  N_10
REMARK                            x       y       z     vdW  Elec       q    Type
REMARK                         _______ _______ _______ _____ _____    ______ ____
ROOT
ATOM      1  N   UNL     1       3.546   5.665  -5.535  0.00  0.00    -0.269 NA
ATOM      2  C   UNL     1       3.150   6.964  -6.005  0.00  0.00    +0.079 C 
ATOM      3  C   UNL     1       2.565   6.958  -7.389  0.00  0.00    +0.061 C 
ATOM      4  C   UNL     1       2.388   5.582  -7.934  0.00  0.00    +0.044 C 
ATOM      5  C   UNL     1       1.975   4.655  -7.092  0.00  0.00    +0.004 C 
ATOM      6  C   UNL     1       2.517   4.657  -5.708  0.00  0.00    +0.100 C 
ENDROOT
BRANCH   4   7
ATOM      7  N   UNL     1       2.503   5.349  -9.343  0.00  0.00    -0.261 N 
ATOM      8  C   UNL     1       1.562   5.748 -10.233  0.00  0.00    +0.086 A 
ATOM      9  C   UNL     1       2.111   5.823 -11.502  0.00  0.00    +0.102 A 
ATOM     10  C   UNL     1       1.433   6.588 -12.443  0.00  0.00    +0.021 A 
ATOM     11  C   UNL     1       0.230   7.210 -12.167  0.00  0.00    +0.002 A 
ATOM     12  C   UNL     1      -0.468   6.796 -11.045  0.00  0.00    +0.002 A 
ATOM     13  N   UNL     1       3.436   5.630 -11.311  0.00  0.00    -0.191 NA
ATOM     14  C   UNL     1       0.248   6.145 -10.052  0.00  0.00    +0.019 A 
ATOM     15  C   UNL     1       3.679   5.533  -9.986  0.00  0.00    +0.354 A 
ATOM     16  O   UNL     1       4.823   5.503  -9.447  0.00  0.00    -0.244 OA
ENDBRANCH   4   7
BRANCH   1  17
ATOM     17  C   UNL     1       3.770   5.770  -4.095  0.00  0.00    +0.073 C 
BRANCH  17  18
ATOM     18  C   UNL     1       2.646   5.149  -3.303  0.00  0.00    +0.025 C 
BRANCH  18  19
ATOM     19  C   UNL     1       1.836   6.165  -2.548  0.00  0.00    +0.071 C 
BRANCH  19  21
ATOM     20  O   UNL     1       0.239   4.647  -1.779  0.00  0.00    -0.291 OA
ATOM     21  C   UNL     1       0.410   5.746  -2.389  0.00  0.00    +0.173 C 
BRANCH  21  22
ATOM     22  C   UNL     1      -0.583   6.200  -3.372  0.00  0.00    +0.035 A 
ATOM     23  C   UNL     1      -1.842   5.615  -3.441  0.00  0.00    +0.005 A 
ATOM     24  C   UNL     1      -2.511   5.465  -4.650  0.00  0.00    +0.030 A 
ATOM     25  C   UNL     1      -1.862   5.770  -5.840  0.00  0.00    +0.140 A 
ATOM     26  F   UNL     1      -1.967   4.976  -6.944  0.00  0.00    -0.204 F 
ATOM     27  C   UNL     1      -0.849   6.717  -5.732  0.00  0.00    +0.030 A 
ATOM     28  C   UNL     1      -0.213   6.908  -4.510  0.00  0.00    +0.005 A 
ENDBRANCH  21  22
ENDBRANCH  19  21
ENDBRANCH  18  19
ENDBRANCH  17  18
ENDBRANCH   1  17
TORSDOF 6
ENDMDL
MODEL 9
REMARK VINA RESULT:      -8.7      2.378      3.300
REMARK  Name = 
REMARK  6 active torsions:
REMARK  status: ('A' for Active; 'I' for Inactive)
REMARK    1  A    between atoms: C_2  and  C_3
REMARK    2  A    between atoms: C_2  and  C_22
REMARK    3  A    between atoms: C_3  and  C_4
REMARK    4  A    between atoms: C_4  and  C_5
REMARK    5  A    between atoms: C_5  and  N_6
REMARK    6  A    between atoms: C_9  and  N_10
REMARK                            x       y       z     vdW  Elec       q    Type
REMARK                         _______ _______ _______ _____ _____    ______ ____
ROOT
ATOM      1  N   UNL     1       3.527   5.771  -8.144  0.00  0.00    -0.269 NA
ATOM      2  C   UNL     1       2.523   4.744  -8.180  0.00  0.00    +0.079 C 
ATOM      3  C   UNL     1       1.433   4.923  -7.162  0.00  0.00    +0.061 C 
ATOM      4  C   UNL     1       1.546   6.209  -6.417  0.00  0.00    +0.044 C 
ATOM      5  C   UNL     1       1.916   7.269  -7.107  0.00  0.00    +0.004 C 
ATOM      6  C   UNL     1       2.972   7.112  -8.141  0.00  0.00    +0.100 C 
ENDROOT
BRANCH   4   7
ATOM      7  N   UNL     1       1.102   6.290  -5.057  0.00  0.00    -0.261 N 
ATOM      8  C   UNL     1      -0.209   6.278  -4.710  0.00  0.00    +0.086 A 
ATOM      9  C   UNL     1      -0.345   5.905  -3.383  0.00  0.00    +0.102 A 
ATOM     10  C   UNL     1      -1.592   5.448  -2.977  0.00  0.00    +0.021 A 
ATOM     11  C   UNL     1      -2.682   5.411  -3.826  0.00  0.00    +0.002 A 
ATOM     12  C   UNL     1      -2.612   6.145  -4.998  0.00  0.00    +0.002 A 
ATOM     13  N   UNL     1       0.898   5.528  -3.007  0.00  0.00    -0.191 NA
ATOM     14  C   UNL     1      -1.352   6.487  -5.463  0.00  0.00    +0.019 A 
ATOM     15  C   UNL     1       1.719   5.589  -4.078  0.00  0.00    +0.354 A 
ATOM     16  O   UNL     1       2.909   5.161  -4.120  0.00  0.00    -0.244 OA
ENDBRANCH   4   7
BRANCH   1  17
ATOM     17  C   UNL     1       4.310   5.661  -9.373  0.00  0.00    +0.073 C 
BRANCH  17  18
ATOM     18  C   UNL     1       3.501   5.084 -10.508  0.00  0.00    +0.025 C 
BRANCH  18  19
ATOM     19  C   UNL     1       3.499   5.963 -11.727  0.00  0.00    +0.071 C 
BRANCH  19  21
ATOM     20  O   UNL     1       4.515   4.595 -13.322  0.00  0.00    -0.291 OA
ATOM     21  C   UNL     1       4.640   5.659 -12.644  0.00  0.00    +0.173 C 
BRANCH  21  22
ATOM     22  C   UNL     1       5.980   6.161 -12.309  0.00  0.00    +0.035 A 
ATOM     23  C   UNL     1       7.023   5.286 -12.028  0.00  0.00    +0.005 A 
ATOM     24  C   UNL     1       8.005   5.598 -11.095  0.00  0.00    +0.030 A 
ATOM     25  C   UNL     1       7.877   6.740 -10.314  0.00  0.00    +0.140 A 
ATOM     26  F   UNL     1       8.162   6.739  -8.980  0.00  0.00    -0.204 F 
ATOM     27  C   UNL     1       7.128   7.763 -10.886  0.00  0.00    +0.030 A 
ATOM     28  C   UNL     1       6.181   7.461 -11.858  0.00  0.00    +0.005 A 
ENDBRANCH  21  22
ENDBRANCH  19  21
ENDBRANCH  18  19
ENDBRANCH  17  18
ENDBRANCH   1  17
TORSDOF 6
ENDMDL
