MODEL 1
REMARK VINA RESULT:      -8.8      0.000      0.000
REMARK  Name = 
REMARK  4 active torsions:
REMARK  status: ('A' for Active; 'I' for Inactive)
REMARK    1  A    between atoms: C_5  and  C_6
REMARK    2  A    between atoms: C_12  and  C_13
REMARK    3  A    between atoms: N_15  and  CA_16
REMARK    4  A    between atoms: CA_25  and  C_26
REMARK                            x       y       z     vdW  Elec       q    Type
REMARK                         _______ _______ _______ _____ _____    ______ ____
ROOT
ATOM      1  C   UNL     1       2.699   6.603  -6.965  0.00  0.00    +0.270 C 
ATOM      2  N   UNL     1       2.567   6.700  -5.560  0.00  0.00    -0.191 NA
ATOM      3  O   UNL     1       2.982   7.728  -7.491  0.00  0.00    -0.268 OA
ENDROOT
BRANCH   2   4
ATOM      4  CA  UNL     1       3.866   7.305  -4.824  0.00  0.00    +0.200 C 
ATOM      5  C   UNL     1       3.099   7.520  -3.317  0.00  0.00    +0.153 C 
ATOM      6  S   UNL     1       2.185   5.842  -3.118  0.00  0.00    -0.118 S 
ATOM      7  C   UNL     1       2.764   5.627  -1.488  0.00  0.00    +0.068 C 
ATOM      8  CA  UNL     1       4.150   6.562  -1.359  0.00  0.00    +0.189 C 
ATOM      9  C   UNL     1       1.899   6.011  -0.360  0.00  0.00    +0.013 C 
ATOM     10  C   UNL     1       3.401   4.274  -1.187  0.00  0.00    +0.013 C 
ATOM     11  N   UNL     1       4.343   6.720  -2.940  0.00  0.00    -0.259 N 
ATOM     12  C   UNL     1       4.312   5.898  -4.137  0.00  0.00    +0.249 C 
ATOM     13  O   UNL     1       4.806   4.913  -4.664  0.00  0.00    -0.273 OA
BRANCH   8  14
ATOM     14  C   UNL     1       3.336   7.988  -1.152  0.00  0.00    +0.383 C 
ATOM     15  OXT UNL     1       4.071   9.040  -1.738  0.00  0.00    -0.244 OA
ATOM     16  O   UNL     1       3.226   8.204   0.098  0.00  0.00    -0.244 OA
ENDBRANCH   8  14
ENDBRANCH   2   4
BRANCH   1  19
ATOM     17  C   UNL     1       2.000   3.569  -6.446  0.00  0.00    +0.076 C 
ATOM     18  C   UNL     1       2.653   4.137  -7.593  0.00  0.00    +0.159 A 
ATOM     19  C   UNL     1       3.105   5.448  -7.752  0.00  0.00    +0.109 A 
ATOM     20  C   UNL     1       3.662   5.453  -9.019  0.00  0.00    +0.127 A 
ATOM     21  N   UNL     1       3.216   4.336  -9.611  0.00  0.00    -0.077 NA
ATOM     22  O   UNL     1       2.430   3.672  -8.813  0.00  0.00    -0.358 OA
BRANCH  20  23
ATOM     23  C   UNL     1       4.836   6.277  -9.322  0.00  0.00    +0.021 A 
ATOM     24  C   UNL     1       4.868   7.105 -10.439  0.00  0.00    +0.002 A 
ATOM     25  C   UNL     1       6.059   7.446 -11.061  0.00  0.00    +0.000 A 
ATOM     26  C   UNL     1       7.256   6.906 -10.625  0.00  0.00    +0.000 A 
ATOM     27  C   UNL     1       7.230   5.971  -9.635  0.00  0.00    +0.000 A 
ATOM     28  C   UNL     1       6.053   5.677  -9.007  0.00  0.00    +0.002 A 
ENDBRANCH  20  23
ENDBRANCH   1  19
TORSDOF 4
ENDMDL
MODEL 2
REMARK VINA RESULT:      -8.7      2.809      7.044
REMARK  Name = 
REMARK  4 active torsions:
REMARK  status: ('A' for Active; 'I' for Inactive)
REMARK    1  A    between atoms: C_5  and  C_6
REMARK    2  A    between atoms: C_12  and  C_13
REMARK    3  A    between atoms: N_15  and  CA_16
REMARK    4  A    between atoms: CA_25  and  C_26
REMARK                            x       y       z     vdW  Elec       q    Type
REMARK                         _______ _______ _______ _____ _____    ______ ____
ROOT
ATOM      1  C   UNL     1       0.365   6.946  -4.581  0.00  0.00    +0.270 C 
ATOM      2  N   UNL     1       1.196   6.595  -5.671  0.00  0.00    -0.191 NA
ATOM      3  O   UNL     1      -0.724   7.479  -4.971  0.00  0.00    -0.268 OA
ENDROOT
BRANCH   2   4
ATOM      4  CA  UNL     1       0.492   5.616  -6.738  0.00  0.00    +0.200 C 
ATOM      5  C   UNL     1       1.185   6.359  -8.107  0.00  0.00    +0.153 C 
ATOM      6  S   UNL     1       3.015   6.536  -7.550  0.00  0.00    -0.118 S 
ATOM      7  C   UNL     1       3.619   5.870  -9.043  0.00  0.00    +0.068 C 
ATOM      8  CA  UNL     1       2.367   4.957  -9.686  0.00  0.00    +0.189 C 
ATOM      9  C   UNL     1       4.058   6.781 -10.114  0.00  0.00    +0.013 C 
ATOM     10  C   UNL     1       4.640   4.744  -8.899  0.00  0.00    +0.013 C 
ATOM     11  N   UNL     1       1.544   4.890  -8.315  0.00  0.00    -0.259 N 
ATOM     12  C   UNL     1       1.779   4.633  -6.905  0.00  0.00    +0.249 C 
ATOM     13  O   UNL     1       2.219   3.809  -6.118  0.00  0.00    -0.273 OA
BRANCH   8  14
ATOM     14  C   UNL     1       1.550   6.258 -10.302  0.00  0.00    +0.383 C 
ATOM     15  OXT UNL     1       0.167   5.983 -10.316  0.00  0.00    -0.244 OA
ATOM     16  O   UNL     1       1.948   6.447 -11.496  0.00  0.00    -0.244 OA
ENDBRANCH   8  14
ENDBRANCH   2   4
BRANCH   1  19
ATOM     17  C   UNL     1      -2.152   6.676  -2.697  0.00  0.00    +0.076 C 
ATOM     18  C   UNL     1      -0.856   6.081  -2.523  0.00  0.00    +0.159 A 
ATOM     19  C   UNL     1       0.300   6.327  -3.266  0.00  0.00    +0.109 A 
ATOM     20  C   UNL     1       1.250   5.512  -2.677  0.00  0.00    +0.127 A 
ATOM     21  N   UNL     1       0.560   4.645  -1.922  0.00  0.00    -0.077 NA
ATOM     22  O   UNL     1      -0.720   4.862  -2.020  0.00  0.00    -0.358 OA
BRANCH  20  23
ATOM     23  C   UNL     1       2.653   5.931  -2.590  0.00  0.00    +0.021 A 
ATOM     24  C   UNL     1       2.998   7.267  -2.420  0.00  0.00    +0.002 A 
ATOM     25  C   UNL     1       4.207   7.771  -2.872  0.00  0.00    +0.000 A 
ATOM     26  C   UNL     1       5.083   6.964  -3.577  0.00  0.00    +0.000 A 
ATOM     27  C   UNL     1       4.695   5.697  -3.891  0.00  0.00    +0.000 A 
ATOM     28  C   UNL     1       3.518   5.204  -3.404  0.00  0.00    +0.002 A 
ENDBRANCH  20  23
ENDBRANCH   1  19
TORSDOF 4
ENDMDL
MODEL 3
REMARK VINA RESULT:      -8.7      1.884      2.836
REMARK  Name = 
REMARK  4 active torsions:
REMARK  status: ('A' for Active; 'I' for Inactive)
REMARK    1  A    between atoms: C_5  and  C_6
REMARK    2  A    between atoms: C_12  and  C_13
REMARK    3  A    between atoms: N_15  and  CA_16
REMARK    4  A    between atoms: CA_25  and  C_26
REMARK                            x       y       z     vdW  Elec       q    Type
REMARK                         _______ _______ _______ _____ _____    ______ ____
ROOT
ATOM      1  C   UNL     1       2.978   4.743  -7.110  0.00  0.00    +0.270 C 
ATOM      2  N   UNL     1       3.375   5.003  -5.777  0.00  0.00    -0.191 NA
ATOM      3  O   UNL     1       2.458   3.587  -7.230  0.00  0.00    -0.268 OA
ENDROOT
BRANCH   2   4
ATOM      4  CA  UNL     1       2.185   4.856  -4.702  0.00  0.00    +0.200 C 
ATOM      5  C   UNL     1       3.202   4.934  -3.337  0.00  0.00    +0.153 C 
ATOM      6  S   UNL     1       4.331   6.419  -3.796  0.00  0.00    -0.118 S 
ATOM      7  C   UNL     1       4.115   7.170  -2.238  0.00  0.00    +0.068 C 
ATOM      8  CA  UNL     1       2.680   6.558  -1.621  0.00  0.00    +0.189 C 
ATOM      9  C   UNL     1       5.133   6.968  -1.193  0.00  0.00    +0.013 C 
ATOM     10  C   UNL     1       3.715   8.642  -2.264  0.00  0.00    +0.013 C 
ATOM     11  N   UNL     1       2.161   6.008  -3.032  0.00  0.00    -0.259 N 
ATOM     12  C   UNL     1       2.053   6.452  -4.410  0.00  0.00    +0.249 C 
ATOM     13  O   UNL     1       1.586   7.324  -5.127  0.00  0.00    -0.273 OA
BRANCH   8  14
ATOM     14  C   UNL     1       3.343   5.126  -1.122  0.00  0.00    +0.383 C 
ATOM     15  OXT UNL     1       2.315   4.237  -0.745  0.00  0.00    -0.244 OA
ATOM     16  O   UNL     1       4.081   5.361  -0.112  0.00  0.00    -0.244 OA
ENDBRANCH   8  14
ENDBRANCH   2   4
BRANCH   1  19
ATOM     17  C   UNL     1       0.045   5.642  -7.853  0.00  0.00    +0.076 C 
ATOM     18  C   UNL     1       1.282   6.196  -8.330  0.00  0.00    +0.159 A 
ATOM     19  C   UNL     1       2.571   5.699  -8.129  0.00  0.00    +0.109 A 
ATOM     20  C   UNL     1       3.379   6.595  -8.806  0.00  0.00    +0.127 A 
ATOM     21  N   UNL     1       2.609   7.668  -9.037  0.00  0.00    -0.077 NA
ATOM     22  O   UNL     1       1.416   7.497  -8.544  0.00  0.00    -0.358 OA
BRANCH  20  23
ATOM     23  C   UNL     1       4.599   6.145  -9.484  0.00  0.00    +0.021 A 
ATOM     24  C   UNL     1       5.654   5.582  -8.774  0.00  0.00    +0.002 A 
ATOM     25  C   UNL     1       6.962   5.658  -9.226  0.00  0.00    +0.000 A 
ATOM     26  C   UNL     1       7.265   6.370 -10.374  0.00  0.00    +0.000 A 
ATOM     27  C   UNL     1       6.270   7.061 -10.997  0.00  0.00    +0.000 A 
ATOM     28  C   UNL     1       4.981   6.942 -10.561  0.00  0.00    +0.002 A 
ENDBRANCH  20  23
ENDBRANCH   1  19
TORSDOF 4
ENDMDL
MODEL 4
REMARK VINA RESULT:      -8.7      2.157      3.371
REMARK  Name = 
REMARK  4 active torsions:
REMARK  status: ('A' for Active; 'I' for Inactive)
REMARK    1  A    between atoms: C_5  and  C_6
REMARK    2  A    between atoms: C_12  and  C_13
REMARK    3  A    between atoms: N_15  and  CA_16
REMARK    4  A    between atoms: CA_25  and  C_26
REMARK                            x       y       z     vdW  Elec       q    Type
REMARK                         _______ _______ _______ _____ _____    ______ ____
ROOT
ATOM      1  C   UNL     1       2.883   4.435  -8.910  0.00  0.00    +0.270 C 
ATOM      2  N   UNL     1       3.178   5.023  -7.657  0.00  0.00    -0.191 NA
ATOM      3  O   UNL     1       2.035   3.491  -8.800  0.00  0.00    -0.268 OA
ENDROOT
BRANCH   2   4
ATOM      4  CA  UNL     1       1.883   5.576  -6.876  0.00  0.00    +0.200 C 
ATOM      5  C   UNL     1       2.447   5.149  -5.325  0.00  0.00    +0.153 C 
ATOM      6  S   UNL     1       4.260   5.780  -5.400  0.00  0.00    -0.118 S 
ATOM      7  C   UNL     1       4.128   6.588  -3.861  0.00  0.00    +0.068 C 
ATOM      8  CA  UNL     1       2.492   6.863  -3.619  0.00  0.00    +0.189 C 
ATOM      9  C   UNL     1       4.617   5.911  -2.648  0.00  0.00    +0.013 C 
ATOM     10  C   UNL     1       4.587   8.043  -3.837  0.00  0.00    +0.013 C 
ATOM     11  N   UNL     1       2.096   6.624  -5.151  0.00  0.00    -0.259 N 
ATOM     12  C   UNL     1       2.554   7.004  -6.475  0.00  0.00    +0.249 C 
ATOM     13  O   UNL     1       2.796   7.963  -7.192  0.00  0.00    -0.273 OA
BRANCH   8  14
ATOM     14  C   UNL     1       2.162   5.319  -3.123  0.00  0.00    +0.383 C 
ATOM     15  OXT UNL     1       0.802   5.030  -3.353  0.00  0.00    -0.244 OA
ATOM     16  O   UNL     1       2.398   5.245  -1.874  0.00  0.00    -0.244 OA
ENDBRANCH   8  14
ENDBRANCH   2   4
BRANCH   1  19
ATOM     17  C   UNL     1       0.527   4.749 -10.987  0.00  0.00    +0.076 C 
ATOM     18  C   UNL     1       1.843   5.320 -11.059  0.00  0.00    +0.159 A 
ATOM     19  C   UNL     1       2.932   5.053 -10.227  0.00  0.00    +0.109 A 
ATOM     20  C   UNL     1       3.941   5.850 -10.739  0.00  0.00    +0.127 A 
ATOM     21  N   UNL     1       3.329   6.728 -11.546  0.00  0.00    -0.077 NA
ATOM     22  O   UNL     1       2.041   6.535 -11.549  0.00  0.00    -0.358 OA
BRANCH  20  23
ATOM     23  C   UNL     1       5.338   5.405 -10.715  0.00  0.00    +0.021 A 
ATOM     24  C   UNL     1       6.200   5.787  -9.694  0.00  0.00    +0.002 A 
ATOM     25  C   UNL     1       7.570   5.877  -9.889  0.00  0.00    +0.000 A 
ATOM     26  C   UNL     1       8.114   5.657 -11.143  0.00  0.00    +0.000 A 
ATOM     27  C   UNL     1       7.272   5.438 -12.191  0.00  0.00    +0.000 A 
ATOM     28  C   UNL     1       5.930   5.312 -11.973  0.00  0.00    +0.002 A 
ENDBRANCH  20  23
ENDBRANCH   1  19
TORSDOF 4
ENDMDL
MODEL 5
REMARK VINA RESULT:      -8.6      3.327      7.565
REMARK  Name = 
REMARK  4 active torsions:
REMARK  status: ('A' for Active; 'I' for Inactive)
REMARK    1  A    between atoms: C_5  and  C_6
REMARK    2  A    between atoms: C_12  and  C_13
REMARK    3  A    between atoms: N_15  and  CA_16
REMARK    4  A    between atoms: CA_25  and  C_26
REMARK                            x       y       z     vdW  Elec       q    Type
REMARK                         _______ _______ _______ _____ _____    ______ ____
ROOT
ATOM      1  C   UNL     1       1.499   4.486  -6.488  0.00  0.00    +0.270 C 
ATOM      2  N   UNL     1       1.660   4.712  -7.876  0.00  0.00    -0.191 NA
ATOM      3  O   UNL     1       2.512   3.901  -5.985  0.00  0.00    -0.268 OA
ENDROOT
BRANCH   2   4
ATOM      4  CA  UNL     1       2.983   5.550  -8.250  0.00  0.00    +0.200 C 
ATOM      5  C   UNL     1       3.079   4.975  -9.852  0.00  0.00    +0.153 C 
ATOM      6  S   UNL     1       1.253   5.149 -10.422  0.00  0.00    -0.118 S 
ATOM      7  C   UNL     1       1.707   5.941 -11.907  0.00  0.00    +0.068 C 
ATOM      8  CA  UNL     1       3.224   6.601 -11.637  0.00  0.00    +0.189 C 
ATOM      9  C   UNL     1       1.815   5.147 -13.143  0.00  0.00    +0.013 C 
ATOM     10  C   UNL     1       0.969   7.241 -12.215  0.00  0.00    +0.013 C 
ATOM     11  N   UNL     1       3.129   6.488 -10.044  0.00  0.00    -0.259 N 
ATOM     12  C   UNL     1       2.183   6.766  -8.979  0.00  0.00    +0.249 C 
ATOM     13  O   UNL     1       1.507   7.649  -8.471  0.00  0.00    -0.273 OA
BRANCH   8  14
ATOM     14  C   UNL     1       4.037   5.176 -11.853  0.00  0.00    +0.383 C 
ATOM     15  OXT UNL     1       5.227   5.191 -11.096  0.00  0.00    -0.244 OA
ATOM     16  O   UNL     1       4.330   5.068 -13.087  0.00  0.00    -0.244 OA
ENDBRANCH   8  14
ENDBRANCH   2   4
BRANCH   1  19
ATOM     17  C   UNL     1      -1.540   5.307  -6.716  0.00  0.00    +0.076 C 
ATOM     18  C   UNL     1      -0.668   5.471  -5.586  0.00  0.00    +0.159 A 
ATOM     19  C   UNL     1       0.711   5.257  -5.538  0.00  0.00    +0.109 A 
ATOM     20  C   UNL     1       1.049   5.573  -4.234  0.00  0.00    +0.127 A 
ATOM     21  N   UNL     1      -0.111   5.602  -3.561  0.00  0.00    -0.077 NA
ATOM     22  O   UNL     1      -1.109   5.317  -4.346  0.00  0.00    -0.358 OA
BRANCH  20  23
ATOM     23  C   UNL     1       2.338   6.196  -3.919  0.00  0.00    +0.021 A 
ATOM     24  C   UNL     1       2.947   7.082  -4.801  0.00  0.00    +0.002 A 
ATOM     25  C   UNL     1       4.322   7.250  -4.834  0.00  0.00    +0.000 A 
ATOM     26  C   UNL     1       5.141   6.477  -4.030  0.00  0.00    +0.000 A 
ATOM     27  C   UNL     1       4.577   5.494  -3.275  0.00  0.00    +0.000 A 
ATOM     28  C   UNL     1       3.218   5.369  -3.224  0.00  0.00    +0.002 A 
ENDBRANCH  20  23
ENDBRANCH   1  19
TORSDOF 4
ENDMDL
MODEL 6
REMARK VINA RESULT:      -8.4      2.562      4.160
REMARK  Name = 
REMARK  4 active torsions:
REMARK  status: ('A' for Active; 'I' for Inactive)
REMARK    1  A    between atoms: C_5  and  C_6
REMARK    2  A    between atoms: C_12  and  C_13
REMARK    3  A    between atoms: N_15  and  CA_16
REMARK    4  A    between atoms: CA_25  and  C_26
REMARK                            x       y       z     vdW  Elec       q    Type
REMARK                         _______ _______ _______ _____ _____    ______ ____
ROOT
ATOM      1  C   UNL     1       3.412   4.380  -8.712  0.00  0.00    +0.270 C 
ATOM      2  N   UNL     1       3.364   4.566  -7.310  0.00  0.00    -0.191 NA
ATOM      3  O   UNL     1       2.397   3.740  -9.138  0.00  0.00    -0.268 OA
ENDROOT
BRANCH   2   4
ATOM      4  CA  UNL     1       2.030   5.308  -6.797  0.00  0.00    +0.200 C 
ATOM      5  C   UNL     1       2.310   4.997  -5.144  0.00  0.00    +0.153 C 
ATOM      6  S   UNL     1       4.169   5.457  -4.987  0.00  0.00    -0.118 S 
ATOM      7  C   UNL     1       3.891   6.430  -3.567  0.00  0.00    +0.068 C 
ATOM      8  CA  UNL     1       2.273   6.870  -3.613  0.00  0.00    +0.189 C 
ATOM      9  C   UNL     1       4.121   5.843  -2.236  0.00  0.00    +0.013 C 
ATOM     10  C   UNL     1       4.487   7.834  -3.601  0.00  0.00    +0.013 C 
ATOM     11  N   UNL     1       2.088   6.507  -5.161  0.00  0.00    -0.259 N 
ATOM     12  C   UNL     1       2.776   6.706  -6.424  0.00  0.00    +0.249 C 
ATOM     13  O   UNL     1       3.219   7.561  -7.177  0.00  0.00    -0.273 OA
BRANCH   8  14
ATOM     14  C   UNL     1       1.718   5.420  -3.039  0.00  0.00    +0.383 C 
ATOM     15  OXT UNL     1       0.405   5.200  -3.505  0.00  0.00    -0.244 OA
ATOM     16  O   UNL     1       1.705   5.476  -1.767  0.00  0.00    -0.244 OA
ENDBRANCH   8  14
ENDBRANCH   2   4
BRANCH   1  19
ATOM     17  C   UNL     1       6.388   5.432  -8.713  0.00  0.00    +0.076 C 
ATOM     18  C   UNL     1       5.417   5.541  -9.766  0.00  0.00    +0.159 A 
ATOM     19  C   UNL     1       4.059   5.220  -9.708  0.00  0.00    +0.109 A 
ATOM     20  C   UNL     1       3.595   5.524 -10.976  0.00  0.00    +0.127 A 
ATOM     21  N   UNL     1       4.690   5.651 -11.738  0.00  0.00    -0.077 NA
ATOM     22  O   UNL     1       5.768   5.435 -11.040  0.00  0.00    -0.358 OA
BRANCH  20  23
ATOM     23  C   UNL     1       2.240   6.049 -11.176  0.00  0.00    +0.021 A 
ATOM     24  C   UNL     1       1.574   6.733 -10.166  0.00  0.00    +0.002 A 
ATOM     25  C   UNL     1       0.190   6.752 -10.086  0.00  0.00    +0.000 A 
ATOM     26  C   UNL     1      -0.572   6.020 -10.979  0.00  0.00    +0.000 A 
ATOM     27  C   UNL     1       0.064   5.217 -11.877  0.00  0.00    +0.000 A 
ATOM     28  C   UNL     1       1.426   5.242 -11.968  0.00  0.00    +0.002 A 
ENDBRANCH  20  23
ENDBRANCH   1  19
TORSDOF 4
ENDMDL
MODEL 7
REMARK VINA RESULT:      -8.2      3.166      7.789
REMARK  Name = 
REMARK  4 active torsions:
REMARK  status: ('A' for Active; 'I' for Inactive)
REMARK    1  A    between atoms: C_5  and  C_6
REMARK    2  A    between atoms: C_12  and  C_13
REMARK    3  A    between atoms: N_15  and  CA_16
REMARK    4  A    between atoms: CA_25  and  C_26
REMARK                            x       y       z     vdW  Elec       q    Type
REMARK                         _______ _______ _______ _____ _____    ______ ____
ROOT
ATOM      1  C   UNL     1       1.814   4.448  -6.041  0.00  0.00    +0.270 C 
ATOM      2  N   UNL     1       1.790   4.578  -7.450  0.00  0.00    -0.191 NA
ATOM      3  O   UNL     1       2.934   4.008  -5.626  0.00  0.00    -0.268 OA
ENDROOT
BRANCH   2   4
ATOM      4  CA  UNL     1       2.964   5.510  -8.038  0.00  0.00    +0.200 C 
ATOM      5  C   UNL     1       2.771   4.996  -9.652  0.00  0.00    +0.153 C 
ATOM      6  S   UNL     1       0.861   5.074  -9.844  0.00  0.00    -0.118 S 
ATOM      7  C   UNL     1       0.966   5.942 -11.352  0.00  0.00    +0.068 C 
ATOM      8  CA  UNL     1       2.469   6.687 -11.356  0.00  0.00    +0.189 C 
ATOM      9  C   UNL     1       0.870   5.199 -12.619  0.00  0.00    +0.013 C 
ATOM     10  C   UNL     1       0.112   7.203 -11.449  0.00  0.00    +0.013 C 
ATOM     11  N   UNL     1       2.699   6.515  -9.781  0.00  0.00    -0.259 N 
ATOM     12  C   UNL     1       1.969   6.697  -8.539  0.00  0.00    +0.249 C 
ATOM     13  O   UNL     1       1.361   7.518  -7.870  0.00  0.00    -0.273 OA
BRANCH   8  14
ATOM     14  C   UNL     1       3.299   5.323 -11.791  0.00  0.00    +0.383 C 
ATOM     15  OXT UNL     1       4.598   5.367 -11.244  0.00  0.00    -0.244 OA
ATOM     16  O   UNL     1       3.383   5.298 -13.061  0.00  0.00    -0.244 OA
ENDBRANCH   8  14
ENDBRANCH   2   4
BRANCH   1  19
ATOM     17  C   UNL     1      -1.115   5.593  -6.310  0.00  0.00    +0.076 C 
ATOM     18  C   UNL     1      -0.285   5.570  -5.138  0.00  0.00    +0.159 A 
ATOM     19  C   UNL     1       1.062   5.212  -5.056  0.00  0.00    +0.109 A 
ATOM     20  C   UNL     1       1.367   5.378  -3.717  0.00  0.00    +0.127 A 
ATOM     21  N   UNL     1       0.185   5.468  -3.089  0.00  0.00    -0.077 NA
ATOM     22  O   UNL     1      -0.798   5.355  -3.935  0.00  0.00    -0.358 OA
BRANCH  20  23
ATOM     23  C   UNL     1       2.695   5.836  -3.297  0.00  0.00    +0.021 A 
ATOM     24  C   UNL     1       3.298   5.344  -2.145  0.00  0.00    +0.002 A 
ATOM     25  C   UNL     1       4.221   6.089  -1.429  0.00  0.00    +0.000 A 
ATOM     26  C   UNL     1       4.516   7.388  -1.805  0.00  0.00    +0.000 A 
ATOM     27  C   UNL     1       3.820   7.943  -2.836  0.00  0.00    +0.000 A 
ATOM     28  C   UNL     1       2.943   7.182  -3.555  0.00  0.00    +0.002 A 
ENDBRANCH  20  23
ENDBRANCH   1  19
TORSDOF 4
ENDMDL
MODEL 8
REMARK VINA RESULT:      -8.2      4.108      8.746
REMARK  Name = 
REMARK  4 active torsions:
REMARK  status: ('A' for Active; 'I' for Inactive)
REMARK    1  A    between atoms: C_5  and  C_6
REMARK    2  A    between atoms: C_12  and  C_13
REMARK    3  A    between atoms: N_15  and  CA_16
REMARK    4  A    between atoms: CA_25  and  C_26
REMARK                            x       y       z     vdW  Elec       q    Type
REMARK                         _______ _______ _______ _____ _____    ______ ____
ROOT
ATOM      1  C   UNL     1       2.519   7.140  -8.102  0.00  0.00    +0.270 C 
ATOM      2  N   UNL     1       2.380   6.519  -9.366  0.00  0.00    -0.191 NA
ATOM      3  O   UNL     1       2.152   8.359  -8.132  0.00  0.00    -0.268 OA
ENDROOT
BRANCH   2   4
ATOM      4  CA  UNL     1       0.890   6.598  -9.971  0.00  0.00    +0.200 C 
ATOM      5  C   UNL     1       1.376   7.163 -11.503  0.00  0.00    +0.153 C 
ATOM      6  S   UNL     1       2.849   5.989 -11.884  0.00  0.00    -0.118 S 
ATOM      7  C   UNL     1       2.258   5.635 -13.485  0.00  0.00    +0.068 C 
ATOM      8  CA  UNL     1       0.612   5.956 -13.456  0.00  0.00    +0.189 C 
ATOM      9  C   UNL     1       2.803   6.377 -14.635  0.00  0.00    +0.013 C 
ATOM     10  C   UNL     1       2.172   4.155 -13.846  0.00  0.00    +0.013 C 
ATOM     11  N   UNL     1       0.513   5.955 -11.858  0.00  0.00    -0.259 N 
ATOM     12  C   UNL     1       0.965   5.160 -10.731  0.00  0.00    +0.249 C 
ATOM     13  O   UNL     1       0.941   4.038 -10.248  0.00  0.00    -0.273 OA
BRANCH   8  14
ATOM     14  C   UNL     1       0.787   7.594 -13.607  0.00  0.00    +0.383 C 
ATOM     15  OXT UNL     1      -0.198   8.247 -12.837  0.00  0.00    -0.244 OA
ATOM     16  O   UNL     1       0.626   7.899 -14.833  0.00  0.00    -0.244 OA
ENDBRANCH   8  14
ENDBRANCH   2   4
BRANCH   1  19
ATOM     17  C   UNL     1       4.718   5.367  -6.695  0.00  0.00    +0.076 C 
ATOM     18  C   UNL     1       3.503   5.876  -6.124  0.00  0.00    +0.159 A 
ATOM     19  C   UNL     1       2.457   6.522  -6.786  0.00  0.00    +0.109 A 
ATOM     20  C   UNL     1       1.542   6.784  -5.781  0.00  0.00    +0.127 A 
ATOM     21  N   UNL     1       2.213   6.613  -4.633  0.00  0.00    -0.077 NA
ATOM     22  O   UNL     1       3.452   6.286  -4.865  0.00  0.00    -0.358 OA
BRANCH  20  23
ATOM     23  C   UNL     1       0.100   6.747  -6.046  0.00  0.00    +0.021 A 
ATOM     24  C   UNL     1      -0.815   7.237  -5.122  0.00  0.00    +0.002 A 
ATOM     25  C   UNL     1      -2.112   6.752  -5.052  0.00  0.00    +0.000 A 
ATOM     26  C   UNL     1      -2.511   5.702  -5.861  0.00  0.00    +0.000 A 
ATOM     27  C   UNL     1      -1.585   5.104  -6.660  0.00  0.00    +0.000 A 
ATOM     28  C   UNL     1      -0.324   5.621  -6.747  0.00  0.00    +0.002 A 
ENDBRANCH  20  23
ENDBRANCH   1  19
TORSDOF 4
ENDMDL
MODEL 9
REMARK VINA RESULT:      -8.1      3.327      7.594
REMARK  Name = 
REMARK  4 active torsions:
REMARK  status: ('A' for Active; 'I' for Inactive)
REMARK    1  A    between atoms: C_5  and  C_6
REMARK    2  A    between atoms: C_12  and  C_13
REMARK    3  A    between atoms: N_15  and  CA_16
REMARK    4  A    between atoms: CA_25  and  C_26
REMARK                            x       y       z     vdW  Elec       q    Type
REMARK                         _______ _______ _______ _____ _____    ______ ____
ROOT
ATOM      1  C   UNL     1       1.648   6.460  -8.222  0.00  0.00    +0.270 C 
ATOM      2  N   UNL     1       2.934   6.422  -8.811  0.00  0.00    -0.191 NA
ATOM      3  O   UNL     1       0.725   6.431  -9.099  0.00  0.00    -0.268 OA
ENDROOT
BRANCH   2   4
ATOM      4  CA  UNL     1       3.173   5.153  -9.772  0.00  0.00    +0.200 C 
ATOM      5  C   UNL     1       3.793   6.063 -11.074  0.00  0.00    +0.153 C 
ATOM      6  S   UNL     1       5.023   7.226 -10.164  0.00  0.00    -0.118 S 
ATOM      7  C   UNL     1       6.303   6.892 -11.299  0.00  0.00    +0.068 C 
ATOM      8  CA  UNL     1       5.932   5.413 -11.998  0.00  0.00    +0.189 C 
ATOM      9  C   UNL     1       6.542   7.826 -12.411  0.00  0.00    +0.013 C 
ATOM     10  C   UNL     1       7.643   6.498 -10.685  0.00  0.00    +0.013 C 
ATOM     11  N   UNL     1       4.873   5.003 -10.870  0.00  0.00    -0.259 N 
ATOM     12  C   UNL     1       4.755   5.002  -9.423  0.00  0.00    +0.249 C 
ATOM     13  O   UNL     1       5.276   4.592  -8.396  0.00  0.00    -0.273 OA
BRANCH   8  14
ATOM     14  C   UNL     1       4.817   6.033 -13.051  0.00  0.00    +0.383 C 
ATOM     15  OXT UNL     1       3.900   5.026 -13.415  0.00  0.00    -0.244 OA
ATOM     16  O   UNL     1       5.432   6.431 -14.093  0.00  0.00    -0.244 OA
ENDBRANCH   8  14
ENDBRANCH   2   4
BRANCH   1  19
ATOM     17  C   UNL     1      -1.160   5.304  -7.360  0.00  0.00    +0.076 C 
ATOM     18  C   UNL     1       0.053   5.329  -6.591  0.00  0.00    +0.159 A 
ATOM     19  C   UNL     1       1.247   5.980  -6.907  0.00  0.00    +0.109 A 
ATOM     20  C   UNL     1       2.073   5.695  -5.834  0.00  0.00    +0.127 A 
ATOM     21  N   UNL     1       1.480   4.682  -5.186  0.00  0.00    -0.077 NA
ATOM     22  O   UNL     1       0.380   4.328  -5.786  0.00  0.00    -0.358 OA
BRANCH  20  23
ATOM     23  C   UNL     1       3.055   6.674  -5.357  0.00  0.00    +0.021 A 
ATOM     24  C   UNL     1       4.416   6.497  -5.579  0.00  0.00    +0.002 A 
ATOM     25  C   UNL     1       5.370   7.034  -4.730  0.00  0.00    +0.000 A 
ATOM     26  C   UNL     1       4.987   7.707  -3.583  0.00  0.00    +0.000 A 
ATOM     27  C   UNL     1       3.663   7.754  -3.264  0.00  0.00    +0.000 A 
ATOM     28  C   UNL     1       2.735   7.255  -4.133  0.00  0.00    +0.002 A 
ENDBRANCH  20  23
ENDBRANCH   1  19
TORSDOF 4
ENDMDL
