MODEL 1
REMARK VINA RESULT:      -5.6      0.000      0.000
REMARK  Name = 
REMARK  2 active torsions:
REMARK  status: ('A' for Active; 'I' for Inactive)
REMARK    1  A    between atoms: C_2  and  C_4
REMARK    2  A    between atoms: C_4  and  C_5
REMARK                            x       y       z     vdW  Elec       q    Type
REMARK                         _______ _______ _______ _____ _____    ______ ____
ROOT
ATOM      1  C   UNL     1       6.128   6.499 -10.604  0.00  0.00    -0.021 A 
ATOM      2  C   UNL     1       6.525   5.751  -9.512  0.00  0.00    -0.004 A 
ATOM      3  C   UNL     1       5.589   5.296  -8.593  0.00  0.00    -0.000 A 
ATOM      4  C   UNL     1       4.305   5.760  -8.728  0.00  0.00    -0.000 A 
ATOM      5  C   UNL     1       3.952   6.726  -9.631  0.00  0.00    -0.000 A 
ATOM      6  C   UNL     1       4.872   7.060 -10.598  0.00  0.00    -0.004 A 
ENDROOT
BRANCH   1   7
ATOM      7  C   UNL     1       7.053   6.622 -11.750  0.00  0.00    +0.045 C 
BRANCH   7   9
ATOM      8  C   UNL     1       9.274   5.890 -12.248  0.00  0.00    +0.021 C 
ATOM      9  C   UNL     1       7.849   5.155 -11.783  0.00  0.00    +0.096 C 
ATOM     10  N   UNL     1       7.430   4.917 -13.308  0.00  0.00    -0.133 NA
ENDBRANCH   7   9
ENDBRANCH   1   7
TORSDOF 2
ENDMDL
MODEL 2
REMARK VINA RESULT:      -5.3      8.222     10.651
REMARK  Name = 
REMARK  2 active torsions:
REMARK  status: ('A' for Active; 'I' for Inactive)
REMARK    1  A    between atoms: C_2  and  C_4
REMARK    2  A    between atoms: C_4  and  C_5
REMARK                            x       y       z     vdW  Elec       q    Type
REMARK                         _______ _______ _______ _____ _____    ______ ____
ROOT
ATOM      1  C   UNL     1      -1.227   6.432  -4.974  0.00  0.00    -0.021 A 
ATOM      2  C   UNL     1      -2.007   5.765  -5.899  0.00  0.00    -0.004 A 
ATOM      3  C   UNL     1      -1.434   5.211  -7.035  0.00  0.00    -0.000 A 
ATOM      4  C   UNL     1      -0.114   5.500  -7.273  0.00  0.00    -0.000 A 
ATOM      5  C   UNL     1       0.601   6.393  -6.521  0.00  0.00    -0.000 A 
ATOM      6  C   UNL     1       0.040   6.824  -5.341  0.00  0.00    -0.004 A 
ENDROOT
BRANCH   1   7
ATOM      7  C   UNL     1      -1.770   6.651  -3.617  0.00  0.00    +0.045 C 
BRANCH   7   9
ATOM      8  C   UNL     1      -3.930   6.514  -2.601  0.00  0.00    +0.021 C 
ATOM      9  C   UNL     1      -2.945   5.475  -3.461  0.00  0.00    +0.096 C 
ATOM     10  N   UNL     1      -2.277   4.933  -2.112  0.00  0.00    -0.133 NA
ENDBRANCH   7   9
ENDBRANCH   1   7
TORSDOF 2
ENDMDL
MODEL 3
REMARK VINA RESULT:      -5.3      2.641      4.418
REMARK  Name = 
REMARK  2 active torsions:
REMARK  status: ('A' for Active; 'I' for Inactive)
REMARK    1  A    between atoms: C_2  and  C_4
REMARK    2  A    between atoms: C_4  and  C_5
REMARK                            x       y       z     vdW  Elec       q    Type
REMARK                         _______ _______ _______ _____ _____    ______ ____
ROOT
ATOM      1  C   UNL     1       5.758   5.829  -9.443  0.00  0.00    -0.021 A 
ATOM      2  C   UNL     1       7.129   5.844  -9.623  0.00  0.00    -0.004 A 
ATOM      3  C   UNL     1       7.730   6.847 -10.369  0.00  0.00    -0.000 A 
ATOM      4  C   UNL     1       6.901   7.705 -11.047  0.00  0.00    -0.000 A 
ATOM      5  C   UNL     1       5.544   7.533 -11.113  0.00  0.00    -0.000 A 
ATOM      6  C   UNL     1       4.978   6.608 -10.267  0.00  0.00    -0.004 A 
ENDROOT
BRANCH   1   7
ATOM      7  C   UNL     1       5.197   5.016  -8.345  0.00  0.00    +0.045 C 
BRANCH   7   9
ATOM      8  C   UNL     1       4.361   5.803  -6.248  0.00  0.00    +0.021 C 
ATOM      9  C   UNL     1       3.866   5.888  -7.840  0.00  0.00    +0.096 C 
ATOM     10  N   UNL     1       3.001   4.551  -7.682  0.00  0.00    -0.133 NA
ENDBRANCH   7   9
ENDBRANCH   1   7
TORSDOF 2
ENDMDL
MODEL 4
REMARK VINA RESULT:      -5.2      5.845      7.697
REMARK  Name = 
REMARK  2 active torsions:
REMARK  status: ('A' for Active; 'I' for Inactive)
REMARK    1  A    between atoms: C_2  and  C_4
REMARK    2  A    between atoms: C_4  and  C_5
REMARK                            x       y       z     vdW  Elec       q    Type
REMARK                         _______ _______ _______ _____ _____    ______ ____
ROOT
ATOM      1  C   UNL     1       0.148   6.544  -5.824  0.00  0.00    -0.021 A 
ATOM      2  C   UNL     1      -0.395   5.480  -6.519  0.00  0.00    -0.004 A 
ATOM      3  C   UNL     1      -1.771   5.352  -6.648  0.00  0.00    -0.000 A 
ATOM      4  C   UNL     1      -2.550   6.217  -5.923  0.00  0.00    -0.000 A 
ATOM      5  C   UNL     1      -2.035   7.094  -5.005  0.00  0.00    -0.000 A 
ATOM      6  C   UNL     1      -0.672   7.277  -4.996  0.00  0.00    -0.004 A 
ENDROOT
BRANCH   1   7
ATOM      7  C   UNL     1       1.571   6.877  -6.037  0.00  0.00    +0.045 C 
BRANCH   7   9
ATOM      8  C   UNL     1       3.401   6.268  -7.451  0.00  0.00    +0.021 C 
ATOM      9  C   UNL     1       1.793   6.654  -7.678  0.00  0.00    +0.096 C 
ATOM     10  N   UNL     1       2.154   8.200  -7.878  0.00  0.00    -0.133 NA
ENDBRANCH   7   9
ENDBRANCH   1   7
TORSDOF 2
ENDMDL
MODEL 5
REMARK VINA RESULT:      -5.2      2.873      4.658
REMARK  Name = 
REMARK  2 active torsions:
REMARK  status: ('A' for Active; 'I' for Inactive)
REMARK    1  A    between atoms: C_2  and  C_4
REMARK    2  A    between atoms: C_4  and  C_5
REMARK                            x       y       z     vdW  Elec       q    Type
REMARK                         _______ _______ _______ _____ _____    ______ ____
ROOT
ATOM      1  C   UNL     1       4.802   6.611 -10.092  0.00  0.00    -0.021 A 
ATOM      2  C   UNL     1       5.578   5.649  -9.473  0.00  0.00    -0.004 A 
ATOM      3  C   UNL     1       6.961   5.764  -9.455  0.00  0.00    -0.000 A 
ATOM      4  C   UNL     1       7.514   6.766 -10.212  0.00  0.00    -0.000 A 
ATOM      5  C   UNL     1       6.780   7.552 -11.060  0.00  0.00    -0.000 A 
ATOM      6  C   UNL     1       5.410   7.490 -10.958  0.00  0.00    -0.004 A 
ENDROOT
BRANCH   1   7
ATOM      7  C   UNL     1       3.365   6.682  -9.758  0.00  0.00    +0.045 C 
BRANCH   7   9
ATOM      8  C   UNL     1       2.014   5.666  -8.067  0.00  0.00    +0.021 C 
ATOM      9  C   UNL     1       3.340   6.681  -8.089  0.00  0.00    +0.096 C 
ATOM     10  N   UNL     1       2.397   7.973  -8.063  0.00  0.00    -0.133 NA
ENDBRANCH   7   9
ENDBRANCH   1   7
TORSDOF 2
ENDMDL
MODEL 6
REMARK VINA RESULT:      -5.0      6.580      8.109
REMARK  Name = 
REMARK  2 active torsions:
REMARK  status: ('A' for Active; 'I' for Inactive)
REMARK    1  A    between atoms: C_2  and  C_4
REMARK    2  A    between atoms: C_4  and  C_5
REMARK                            x       y       z     vdW  Elec       q    Type
REMARK                         _______ _______ _______ _____ _____    ______ ____
ROOT
ATOM      1  C   UNL     1      -0.138   6.079  -6.103  0.00  0.00    -0.021 A 
ATOM      2  C   UNL     1      -1.284   5.423  -6.515  0.00  0.00    -0.004 A 
ATOM      3  C   UNL     1      -2.536   5.948  -6.229  0.00  0.00    -0.000 A 
ATOM      4  C   UNL     1      -2.583   7.033  -5.390  0.00  0.00    -0.000 A 
ATOM      5  C   UNL     1      -1.480   7.523  -4.743  0.00  0.00    -0.000 A 
ATOM      6  C   UNL     1      -0.249   7.059  -5.143  0.00  0.00    -0.004 A 
ENDROOT
BRANCH   1   7
ATOM      7  C   UNL     1       1.145   5.732  -6.748  0.00  0.00    +0.045 C 
BRANCH   7   9
ATOM      8  C   UNL     1       2.794   4.737  -5.331  0.00  0.00    +0.021 C 
ATOM      9  C   UNL     1       1.470   4.192  -6.190  0.00  0.00    +0.096 C 
ATOM     10  N   UNL     1       2.381   3.879  -7.467  0.00  0.00    -0.133 NA
ENDBRANCH   7   9
ENDBRANCH   1   7
TORSDOF 2
ENDMDL
MODEL 7
REMARK VINA RESULT:      -5.0      5.667      7.465
REMARK  Name = 
REMARK  2 active torsions:
REMARK  status: ('A' for Active; 'I' for Inactive)
REMARK    1  A    between atoms: C_2  and  C_4
REMARK    2  A    between atoms: C_4  and  C_5
REMARK                            x       y       z     vdW  Elec       q    Type
REMARK                         _______ _______ _______ _____ _____    ______ ____
ROOT
ATOM      1  C   UNL     1       0.249   6.319  -6.320  0.00  0.00    -0.021 A 
ATOM      2  C   UNL     1      -0.232   7.130  -5.309  0.00  0.00    -0.004 A 
ATOM      3  C   UNL     1      -1.500   6.921  -4.783  0.00  0.00    -0.000 A 
ATOM      4  C   UNL     1      -2.297   6.003  -5.420  0.00  0.00    -0.000 A 
ATOM      5  C   UNL     1      -1.944   5.397  -6.595  0.00  0.00    -0.000 A 
ATOM      6  C   UNL     1      -0.641   5.534  -7.016  0.00  0.00    -0.004 A 
ENDROOT
BRANCH   1   7
ATOM      7  C   UNL     1       1.704   6.296  -6.576  0.00  0.00    +0.045 C 
BRANCH   7   9
ATOM      8  C   UNL     1       3.460   6.308  -8.199  0.00  0.00    +0.021 C 
ATOM      9  C   UNL     1       1.832   6.680  -8.196  0.00  0.00    +0.096 C 
ATOM     10  N   UNL     1       2.144   8.210  -7.849  0.00  0.00    -0.133 NA
ENDBRANCH   7   9
ENDBRANCH   1   7
TORSDOF 2
ENDMDL
MODEL 8
REMARK VINA RESULT:      -4.8      6.472      8.176
REMARK  Name = 
REMARK  2 active torsions:
REMARK  status: ('A' for Active; 'I' for Inactive)
REMARK    1  A    between atoms: C_2  and  C_4
REMARK    2  A    between atoms: C_4  and  C_5
REMARK                            x       y       z     vdW  Elec       q    Type
REMARK                         _______ _______ _______ _____ _____    ______ ____
ROOT
ATOM      1  C   UNL     1       0.070   6.513  -5.416  0.00  0.00    -0.021 A 
ATOM      2  C   UNL     1      -0.930   7.342  -4.946  0.00  0.00    -0.004 A 
ATOM      3  C   UNL     1      -2.264   7.047  -5.192  0.00  0.00    -0.000 A 
ATOM      4  C   UNL     1      -2.525   6.009  -6.051  0.00  0.00    -0.000 A 
ATOM      5  C   UNL     1      -1.547   5.357  -6.753  0.00  0.00    -0.000 A 
ATOM      6  C   UNL     1      -0.241   5.593  -6.392  0.00  0.00    -0.004 A 
ENDROOT
BRANCH   1   7
ATOM      7  C   UNL     1       1.416   6.617  -4.816  0.00  0.00    +0.045 C 
BRANCH   7   9
ATOM      8  C   UNL     1       3.421   5.314  -4.812  0.00  0.00    +0.021 C 
ATOM      9  C   UNL     1       2.425   5.971  -5.980  0.00  0.00    +0.096 C 
ATOM     10  N   UNL     1       3.297   7.311  -6.024  0.00  0.00    -0.133 NA
ENDBRANCH   7   9
ENDBRANCH   1   7
TORSDOF 2
ENDMDL
MODEL 9
REMARK VINA RESULT:      -4.7      2.271      4.447
REMARK  Name = 
REMARK  2 active torsions:
REMARK  status: ('A' for Active; 'I' for Inactive)
REMARK    1  A    between atoms: C_2  and  C_4
REMARK    2  A    between atoms: C_4  and  C_5
REMARK                            x       y       z     vdW  Elec       q    Type
REMARK                         _______ _______ _______ _____ _____    ______ ____
ROOT
ATOM      1  C   UNL     1       5.892   5.722 -11.438  0.00  0.00    -0.021 A 
ATOM      2  C   UNL     1       6.120   5.490 -12.781  0.00  0.00    -0.004 A 
ATOM      3  C   UNL     1       7.415   5.409 -13.272  0.00  0.00    -0.000 A 
ATOM      4  C   UNL     1       8.432   5.734 -12.409  0.00  0.00    -0.000 A 
ATOM      5  C   UNL     1       8.213   6.244 -11.157  0.00  0.00    -0.000 A 
ATOM      6  C   UNL     1       6.929   6.193 -10.666  0.00  0.00    -0.004 A 
ENDROOT
BRANCH   1   7
ATOM      7  C   UNL     1       4.560   5.408 -10.882  0.00  0.00    +0.045 C 
BRANCH   7   9
ATOM      8  C   UNL     1       3.706   4.238  -8.979  0.00  0.00    +0.021 C 
ATOM      9  C   UNL     1       4.787   5.486  -9.229  0.00  0.00    +0.096 C 
ATOM     10  N   UNL     1       3.624   6.573  -9.081  0.00  0.00    -0.133 NA
ENDBRANCH   7   9
ENDBRANCH   1   7
TORSDOF 2
ENDMDL
