MODEL 1
REMARK VINA RESULT:      -6.1      0.000      0.000
REMARK  Name = 
REMARK  18 active torsions:
REMARK  status: ('A' for Active; 'I' for Inactive)
REMARK    1  A    between atoms: C_2  and  C_3
REMARK    2  A    between atoms: C_3  and  C_4
REMARK    3  A    between atoms: C_4  and  C_5
REMARK    4  A    between atoms: C_5  and  C_6
REMARK    5  A    between atoms: C_6  and  C_7
REMARK    6  A    between atoms: C_7  and  C_8
REMARK    7  A    between atoms: C_8  and  C_9
REMARK    8  A    between atoms: C_9  and  C_10
REMARK    9  A    between atoms: C_10  and  N_11
REMARK   10  A    between atoms: N_11  and  C_14
REMARK   11  A    between atoms: C_14  and  C_15
REMARK   12  A    between atoms: C_15  and  C_16
REMARK   13  A    between atoms: C_16  and  C_17
REMARK   14  A    between atoms: C_17  and  C_18
REMARK   15  A    between atoms: C_18  and  C_19
REMARK   16  A    between atoms: C_19  and  C_20
REMARK   17  A    between atoms: C_20  and  C_21
REMARK   18  A    between atoms: C_21  and  C_22
REMARK                            x       y       z     vdW  Elec       q    Type
REMARK                         _______ _______ _______ _____ _____    ______ ____
ROOT
ATOM      1  N   UNL     1       2.279   5.396  -5.659  0.00  0.00    +0.306 N 
ATOM      2  C   UNL     1       2.233   6.819  -5.981  0.00  0.00    +0.171 C 
ATOM      3  C   UNL     1       2.991   5.233  -4.420  0.00  0.00    +0.171 C 
ENDROOT
BRANCH   1   4
ATOM      4  C   UNL     1       0.943   4.819  -5.636  0.00  0.00    +0.109 C 
BRANCH   4   5
ATOM      5  C   UNL     1       0.038   5.920  -6.182  0.00  0.00    +0.061 C 
BRANCH   5   6
ATOM      6  C   UNL     1      -1.140   5.233  -6.813  0.00  0.00    +0.006 C 
BRANCH   6   7
ATOM      7  C   UNL     1      -2.463   5.654  -6.220  0.00  0.00    +0.000 C 
BRANCH   7   8
ATOM      8  C   UNL     1      -2.169   6.803  -5.261  0.00  0.00    +0.000 C 
BRANCH   8   9
ATOM      9  C   UNL     1      -2.876   6.611  -3.935  0.00  0.00    +0.000 C 
BRANCH   9  10
ATOM     10  C   UNL     1      -2.388   5.352  -3.264  0.00  0.00    +0.000 C 
BRANCH  10  11
ATOM     11  C   UNL     1      -2.315   5.651  -1.778  0.00  0.00    +0.000 C 
BRANCH  11  13
ATOM     12  C   UNL     1       0.103   5.143  -1.961  0.00  0.00    +0.000 C 
ATOM     13  C   UNL     1      -0.917   6.167  -1.502  0.00  0.00    +0.000 C 
ENDBRANCH  11  13
ENDBRANCH  10  11
ENDBRANCH   9  10
ENDBRANCH   8   9
ENDBRANCH   7   8
ENDBRANCH   6   7
ENDBRANCH   5   6
ENDBRANCH   4   5
ENDBRANCH   1   4
BRANCH   1  14
ATOM     14  C   UNL     1       2.994   4.779  -6.775  0.00  0.00    +0.109 C 
BRANCH  14  15
ATOM     15  C   UNL     1       4.273   5.599  -6.924  0.00  0.00    +0.061 C 
BRANCH  15  16
ATOM     16  C   UNL     1       4.947   5.319  -8.252  0.00  0.00    +0.006 C 
BRANCH  16  17
ATOM     17  C   UNL     1       4.199   6.156  -9.284  0.00  0.00    +0.000 C 
BRANCH  17  18
ATOM     18  C   UNL     1       5.041   6.205 -10.544  0.00  0.00    +0.000 C 
BRANCH  18  19
ATOM     19  C   UNL     1       5.476   7.604 -10.886  0.00  0.00    +0.000 C 
BRANCH  19  20
ATOM     20  C   UNL     1       6.878   7.670 -11.430  0.00  0.00    +0.000 C 
BRANCH  20  21
ATOM     21  C   UNL     1       7.706   6.591 -10.753  0.00  0.00    +0.000 C 
BRANCH  21  22
ATOM     22  C   UNL     1       8.534   5.893 -11.801  0.00  0.00    +0.000 C 
ATOM     23  C   UNL     1       7.719   5.542 -13.019  0.00  0.00    +0.000 C 
ENDBRANCH  21  22
ENDBRANCH  20  21
ENDBRANCH  19  20
ENDBRANCH  18  19
ENDBRANCH  17  18
ENDBRANCH  16  17
ENDBRANCH  15  16
ENDBRANCH  14  15
ENDBRANCH   1  14
TORSDOF 18
ENDMDL
MODEL 2
REMARK VINA RESULT:      -5.9      1.036      2.702
REMARK  Name = 
REMARK  18 active torsions:
REMARK  status: ('A' for Active; 'I' for Inactive)
REMARK    1  A    between atoms: C_2  and  C_3
REMARK    2  A    between atoms: C_3  and  C_4
REMARK    3  A    between atoms: C_4  and  C_5
REMARK    4  A    between atoms: C_5  and  C_6
REMARK    5  A    between atoms: C_6  and  C_7
REMARK    6  A    between atoms: C_7  and  C_8
REMARK    7  A    between atoms: C_8  and  C_9
REMARK    8  A    between atoms: C_9  and  C_10
REMARK    9  A    between atoms: C_10  and  N_11
REMARK   10  A    between atoms: N_11  and  C_14
REMARK   11  A    between atoms: C_14  and  C_15
REMARK   12  A    between atoms: C_15  and  C_16
REMARK   13  A    between atoms: C_16  and  C_17
REMARK   14  A    between atoms: C_17  and  C_18
REMARK   15  A    between atoms: C_18  and  C_19
REMARK   16  A    between atoms: C_19  and  C_20
REMARK   17  A    between atoms: C_20  and  C_21
REMARK   18  A    between atoms: C_21  and  C_22
REMARK                            x       y       z     vdW  Elec       q    Type
REMARK                         _______ _______ _______ _____ _____    ______ ____
ROOT
ATOM      1  N   UNL     1       2.976   6.296  -4.835  0.00  0.00    +0.306 N 
ATOM      2  C   UNL     1       4.197   7.045  -4.554  0.00  0.00    +0.171 C 
ATOM      3  C   UNL     1       3.316   4.905  -4.965  0.00  0.00    +0.171 C 
ENDROOT
BRANCH   1   4
ATOM      4  C   UNL     1       1.961   6.549  -3.823  0.00  0.00    +0.109 C 
BRANCH   4   5
ATOM      5  C   UNL     1       0.979   5.389  -3.963  0.00  0.00    +0.061 C 
BRANCH   5   6
ATOM      6  C   UNL     1       0.358   5.187  -2.611  0.00  0.00    +0.006 C 
BRANCH   6   7
ATOM      7  C   UNL     1      -0.727   6.189  -2.298  0.00  0.00    +0.000 C 
BRANCH   7   8
ATOM      8  C   UNL     1      -2.039   5.413  -2.243  0.00  0.00    +0.000 C 
BRANCH   8   9
ATOM      9  C   UNL     1      -2.827   5.570  -3.527  0.00  0.00    +0.000 C 
BRANCH   9  10
ATOM     10  C   UNL     1      -2.760   6.998  -4.007  0.00  0.00    +0.000 C 
BRANCH  10  11
ATOM     11  C   UNL     1      -2.378   6.947  -5.474  0.00  0.00    +0.000 C 
BRANCH  11  13
ATOM     12  C   UNL     1      -1.281   5.252  -6.911  0.00  0.00    +0.000 C 
ATOM     13  C   UNL     1      -2.364   5.484  -5.874  0.00  0.00    +0.000 C 
ENDBRANCH  11  13
ENDBRANCH  10  11
ENDBRANCH   9  10
ENDBRANCH   8   9
ENDBRANCH   7   8
ENDBRANCH   6   7
ENDBRANCH   5   6
ENDBRANCH   4   5
ENDBRANCH   1   4
BRANCH   1  14
ATOM     14  C   UNL     1       2.476   6.848  -6.093  0.00  0.00    +0.109 C 
BRANCH  14  15
ATOM     15  C   UNL     1       2.686   5.739  -7.121  0.00  0.00    +0.061 C 
BRANCH  15  16
ATOM     16  C   UNL     1       3.328   6.281  -8.382  0.00  0.00    +0.006 C 
BRANCH  16  17
ATOM     17  C   UNL     1       4.478   5.332  -8.705  0.00  0.00    +0.000 C 
BRANCH  17  18
ATOM     18  C   UNL     1       5.352   5.998  -9.750  0.00  0.00    +0.000 C 
BRANCH  18  19
ATOM     19  C   UNL     1       6.818   5.811  -9.471  0.00  0.00    +0.000 C 
BRANCH  19  20
ATOM     20  C   UNL     1       7.692   6.760 -10.246  0.00  0.00    +0.000 C 
BRANCH  20  21
ATOM     21  C   UNL     1       6.965   7.148 -11.523  0.00  0.00    +0.000 C 
BRANCH  21  22
ATOM     22  C   UNL     1       7.553   6.362 -12.666  0.00  0.00    +0.000 C 
ATOM     23  C   UNL     1       8.944   5.872 -12.356  0.00  0.00    +0.000 C 
ENDBRANCH  21  22
ENDBRANCH  20  21
ENDBRANCH  19  20
ENDBRANCH  18  19
ENDBRANCH  17  18
ENDBRANCH  16  17
ENDBRANCH  15  16
ENDBRANCH  14  15
ENDBRANCH   1  14
TORSDOF 18
ENDMDL
MODEL 3
REMARK VINA RESULT:      -5.9      2.679      8.048
REMARK  Name = 
REMARK  18 active torsions:
REMARK  status: ('A' for Active; 'I' for Inactive)
REMARK    1  A    between atoms: C_2  and  C_3
REMARK    2  A    between atoms: C_3  and  C_4
REMARK    3  A    between atoms: C_4  and  C_5
REMARK    4  A    between atoms: C_5  and  C_6
REMARK    5  A    between atoms: C_6  and  C_7
REMARK    6  A    between atoms: C_7  and  C_8
REMARK    7  A    between atoms: C_8  and  C_9
REMARK    8  A    between atoms: C_9  and  C_10
REMARK    9  A    between atoms: C_10  and  N_11
REMARK   10  A    between atoms: N_11  and  C_14
REMARK   11  A    between atoms: C_14  and  C_15
REMARK   12  A    between atoms: C_15  and  C_16
REMARK   13  A    between atoms: C_16  and  C_17
REMARK   14  A    between atoms: C_17  and  C_18
REMARK   15  A    between atoms: C_18  and  C_19
REMARK   16  A    between atoms: C_19  and  C_20
REMARK   17  A    between atoms: C_20  and  C_21
REMARK   18  A    between atoms: C_21  and  C_22
REMARK                            x       y       z     vdW  Elec       q    Type
REMARK                         _______ _______ _______ _____ _____    ______ ____
ROOT
ATOM      1  N   UNL     1       3.404   6.190  -4.148  0.00  0.00    +0.306 N 
ATOM      2  C   UNL     1       4.178   5.126  -3.517  0.00  0.00    +0.171 C 
ATOM      3  C   UNL     1       3.221   7.248  -3.190  0.00  0.00    +0.171 C 
ENDROOT
BRANCH   1   4
ATOM      4  C   UNL     1       4.032   6.634  -5.384  0.00  0.00    +0.109 C 
BRANCH   4   5
ATOM      5  C   UNL     1       4.217   5.359  -6.203  0.00  0.00    +0.061 C 
BRANCH   5   6
ATOM      6  C   UNL     1       4.298   5.782  -7.641  0.00  0.00    +0.006 C 
BRANCH   6   7
ATOM      7  C   UNL     1       4.059   4.648  -8.610  0.00  0.00    +0.000 C 
BRANCH   7   8
ATOM      8  C   UNL     1       2.958   5.107  -9.559  0.00  0.00    +0.000 C 
BRANCH   8   9
ATOM      9  C   UNL     1       2.578   6.552  -9.307  0.00  0.00    +0.000 C 
BRANCH   9  10
ATOM     10  C   UNL     1       1.106   6.754  -9.562  0.00  0.00    +0.000 C 
BRANCH  10  11
ATOM     11  C   UNL     1       0.569   5.434 -10.082  0.00  0.00    +0.000 C 
BRANCH  11  13
ATOM     12  C   UNL     1      -0.430   7.234 -11.462  0.00  0.00    +0.000 C 
ATOM     13  C   UNL     1      -0.186   5.740 -11.362  0.00  0.00    +0.000 C 
ENDBRANCH  11  13
ENDBRANCH  10  11
ENDBRANCH   9  10
ENDBRANCH   8   9
ENDBRANCH   7   8
ENDBRANCH   6   7
ENDBRANCH   5   6
ENDBRANCH   4   5
ENDBRANCH   1   4
BRANCH   1  14
ATOM     14  C   UNL     1       2.132   5.568  -4.512  0.00  0.00    +0.109 C 
BRANCH  14  15
ATOM     15  C   UNL     1       1.120   6.711  -4.511  0.00  0.00    +0.061 C 
BRANCH  15  16
ATOM     16  C   UNL     1       0.361   6.767  -5.820  0.00  0.00    +0.006 C 
BRANCH  16  17
ATOM     17  C   UNL     1       0.198   5.319  -6.270  0.00  0.00    +0.000 C 
BRANCH  17  18
ATOM     18  C   UNL     1      -1.169   5.183  -6.913  0.00  0.00    +0.000 C 
BRANCH  18  19
ATOM     19  C   UNL     1      -2.227   5.959  -6.178  0.00  0.00    +0.000 C 
BRANCH  19  20
ATOM     20  C   UNL     1      -3.018   5.115  -5.215  0.00  0.00    +0.000 C 
BRANCH  20  21
ATOM     21  C   UNL     1      -2.518   5.395  -3.808  0.00  0.00    +0.000 C 
BRANCH  21  22
ATOM     22  C   UNL     1      -2.923   6.795  -3.425  0.00  0.00    +0.000 C 
ATOM     23  C   UNL     1      -2.022   7.370  -2.363  0.00  0.00    +0.000 C 
ENDBRANCH  21  22
ENDBRANCH  20  21
ENDBRANCH  19  20
ENDBRANCH  18  19
ENDBRANCH  17  18
ENDBRANCH  16  17
ENDBRANCH  15  16
ENDBRANCH  14  15
ENDBRANCH   1  14
TORSDOF 18
ENDMDL
MODEL 4
REMARK VINA RESULT:      -5.9      1.616     10.049
REMARK  Name = 
REMARK  18 active torsions:
REMARK  status: ('A' for Active; 'I' for Inactive)
REMARK    1  A    between atoms: C_2  and  C_3
REMARK    2  A    between atoms: C_3  and  C_4
REMARK    3  A    between atoms: C_4  and  C_5
REMARK    4  A    between atoms: C_5  and  C_6
REMARK    5  A    between atoms: C_6  and  C_7
REMARK    6  A    between atoms: C_7  and  C_8
REMARK    7  A    between atoms: C_8  and  C_9
REMARK    8  A    between atoms: C_9  and  C_10
REMARK    9  A    between atoms: C_10  and  N_11
REMARK   10  A    between atoms: N_11  and  C_14
REMARK   11  A    between atoms: C_14  and  C_15
REMARK   12  A    between atoms: C_15  and  C_16
REMARK   13  A    between atoms: C_16  and  C_17
REMARK   14  A    between atoms: C_17  and  C_18
REMARK   15  A    between atoms: C_18  and  C_19
REMARK   16  A    between atoms: C_19  and  C_20
REMARK   17  A    between atoms: C_20  and  C_21
REMARK   18  A    between atoms: C_21  and  C_22
REMARK                            x       y       z     vdW  Elec       q    Type
REMARK                         _______ _______ _______ _____ _____    ______ ____
ROOT
ATOM      1  N   UNL     1       1.994   4.993  -9.130  0.00  0.00    +0.306 N 
ATOM      2  C   UNL     1       1.039   4.649 -10.178  0.00  0.00    +0.171 C 
ATOM      3  C   UNL     1       2.518   3.774  -8.575  0.00  0.00    +0.171 C 
ENDROOT
BRANCH   1   4
ATOM      4  C   UNL     1       3.026   5.888  -9.632  0.00  0.00    +0.109 C 
BRANCH   4   5
ATOM      5  C   UNL     1       4.324   5.096  -9.495  0.00  0.00    +0.061 C 
BRANCH   5   6
ATOM      6  C   UNL     1       5.412   5.952 -10.079  0.00  0.00    +0.006 C 
BRANCH   6   7
ATOM      7  C   UNL     1       6.767   5.695  -9.465  0.00  0.00    +0.000 C 
BRANCH   7   8
ATOM      8  C   UNL     1       7.703   6.771 -10.001  0.00  0.00    +0.000 C 
BRANCH   8   9
ATOM      9  C   UNL     1       7.495   6.995 -11.485  0.00  0.00    +0.000 C 
BRANCH   9  10
ATOM     10  C   UNL     1       8.321   6.015 -12.279  0.00  0.00    +0.000 C 
BRANCH  10  11
ATOM     11  C   UNL     1       7.456   5.554 -13.436  0.00  0.00    +0.000 C 
BRANCH  11  13
ATOM     12  C   UNL     1       6.591   7.155 -15.118  0.00  0.00    +0.000 C 
ATOM     13  C   UNL     1       6.444   6.653 -13.694  0.00  0.00    +0.000 C 
ENDBRANCH  11  13
ENDBRANCH  10  11
ENDBRANCH   9  10
ENDBRANCH   8   9
ENDBRANCH   7   8
ENDBRANCH   6   7
ENDBRANCH   5   6
ENDBRANCH   4   5
ENDBRANCH   1   4
BRANCH   1  14
ATOM     14  C   UNL     1       1.218   5.743  -8.144  0.00  0.00    +0.109 C 
BRANCH  14  15
ATOM     15  C   UNL     1       1.383   4.967  -6.839  0.00  0.00    +0.061 C 
BRANCH  15  16
ATOM     16  C   UNL     1       0.059   4.832  -6.115  0.00  0.00    +0.006 C 
BRANCH  16  17
ATOM     17  C   UNL     1      -1.000   5.355  -7.080  0.00  0.00    +0.000 C 
BRANCH  17  18
ATOM     18  C   UNL     1      -2.219   5.744  -6.266  0.00  0.00    +0.000 C 
BRANCH  18  19
ATOM     19  C   UNL     1      -1.892   6.738  -5.186  0.00  0.00    +0.000 C 
BRANCH  19  20
ATOM     20  C   UNL     1      -2.776   6.607  -3.975  0.00  0.00    +0.000 C 
BRANCH  20  21
ATOM     21  C   UNL     1      -2.335   5.383  -3.190  0.00  0.00    +0.000 C 
BRANCH  21  22
ATOM     22  C   UNL     1      -0.932   5.613  -2.691  0.00  0.00    +0.000 C 
ATOM     23  C   UNL     1      -0.879   5.705  -1.187  0.00  0.00    +0.000 C 
ENDBRANCH  21  22
ENDBRANCH  20  21
ENDBRANCH  19  20
ENDBRANCH  18  19
ENDBRANCH  17  18
ENDBRANCH  16  17
ENDBRANCH  15  16
ENDBRANCH  14  15
ENDBRANCH   1  14
TORSDOF 18
ENDMDL
MODEL 5
REMARK VINA RESULT:      -5.9      2.463      7.437
REMARK  Name = 
REMARK  18 active torsions:
REMARK  status: ('A' for Active; 'I' for Inactive)
REMARK    1  A    between atoms: C_2  and  C_3
REMARK    2  A    between atoms: C_3  and  C_4
REMARK    3  A    between atoms: C_4  and  C_5
REMARK    4  A    between atoms: C_5  and  C_6
REMARK    5  A    between atoms: C_6  and  C_7
REMARK    6  A    between atoms: C_7  and  C_8
REMARK    7  A    between atoms: C_8  and  C_9
REMARK    8  A    between atoms: C_9  and  C_10
REMARK    9  A    between atoms: C_10  and  N_11
REMARK   10  A    between atoms: N_11  and  C_14
REMARK   11  A    between atoms: C_14  and  C_15
REMARK   12  A    between atoms: C_15  and  C_16
REMARK   13  A    between atoms: C_16  and  C_17
REMARK   14  A    between atoms: C_17  and  C_18
REMARK   15  A    between atoms: C_18  and  C_19
REMARK   16  A    between atoms: C_19  and  C_20
REMARK   17  A    between atoms: C_20  and  C_21
REMARK   18  A    between atoms: C_21  and  C_22
REMARK                            x       y       z     vdW  Elec       q    Type
REMARK                         _______ _______ _______ _____ _____    ______ ____
ROOT
ATOM      1  N   UNL     1       2.460   5.739  -5.635  0.00  0.00    +0.306 N 
ATOM      2  C   UNL     1       3.283   4.795  -4.887  0.00  0.00    +0.171 C 
ATOM      3  C   UNL     1       1.895   6.683  -4.708  0.00  0.00    +0.171 C 
ENDROOT
BRANCH   1   4
ATOM      4  C   UNL     1       3.221   6.368  -6.704  0.00  0.00    +0.109 C 
BRANCH   4   5
ATOM      5  C   UNL     1       4.526   5.578  -6.764  0.00  0.00    +0.061 C 
BRANCH   5   6
ATOM      6  C   UNL     1       4.823   5.352  -8.219  0.00  0.00    +0.006 C 
BRANCH   6   7
ATOM      7  C   UNL     1       4.055   6.275  -9.135  0.00  0.00    +0.000 C 
BRANCH   7   8
ATOM      8  C   UNL     1       3.993   5.591 -10.496  0.00  0.00    +0.000 C 
BRANCH   8   9
ATOM      9  C   UNL     1       5.223   5.899 -11.325  0.00  0.00    +0.000 C 
BRANCH   9  10
ATOM     10  C   UNL     1       5.616   7.344 -11.155  0.00  0.00    +0.000 C 
BRANCH  10  11
ATOM     11  C   UNL     1       7.132   7.388 -11.169  0.00  0.00    +0.000 C 
BRANCH  11  13
ATOM     12  C   UNL     1       8.816   5.830 -12.104  0.00  0.00    +0.000 C 
ATOM     13  C   UNL     1       7.613   5.950 -11.188  0.00  0.00    +0.000 C 
ENDBRANCH  11  13
ENDBRANCH  10  11
ENDBRANCH   9  10
ENDBRANCH   8   9
ENDBRANCH   7   8
ENDBRANCH   6   7
ENDBRANCH   5   6
ENDBRANCH   4   5
ENDBRANCH   1   4
BRANCH   1  14
ATOM     14  C   UNL     1       1.426   4.921  -6.267  0.00  0.00    +0.109 C 
BRANCH  14  15
ATOM     15  C   UNL     1       0.331   5.907  -6.664  0.00  0.00    +0.061 C 
BRANCH  15  16
ATOM     16  C   UNL     1      -0.433   5.414  -7.875  0.00  0.00    +0.006 C 
BRANCH  16  17
ATOM     17  C   UNL     1       0.393   5.830  -9.088  0.00  0.00    +0.000 C 
BRANCH  17  18
ATOM     18  C   UNL     1       0.393   4.675 -10.070  0.00  0.00    +0.000 C 
BRANCH  18  19
ATOM     19  C   UNL     1      -0.013   5.103 -11.455  0.00  0.00    +0.000 C 
BRANCH  19  20
ATOM     20  C   UNL     1       0.121   6.585 -11.678  0.00  0.00    +0.000 C 
BRANCH  20  21
ATOM     21  C   UNL     1       1.227   6.819 -12.694  0.00  0.00    +0.000 C 
BRANCH  21  22
ATOM     22  C   UNL     1       1.230   5.672 -13.671  0.00  0.00    +0.000 C 
ATOM     23  C   UNL     1       2.627   5.185 -13.961  0.00  0.00    +0.000 C 
ENDBRANCH  21  22
ENDBRANCH  20  21
ENDBRANCH  19  20
ENDBRANCH  18  19
ENDBRANCH  17  18
ENDBRANCH  16  17
ENDBRANCH  15  16
ENDBRANCH  14  15
ENDBRANCH   1  14
TORSDOF 18
ENDMDL
MODEL 6
REMARK VINA RESULT:      -5.8      1.369      8.846
REMARK  Name = 
REMARK  18 active torsions:
REMARK  status: ('A' for Active; 'I' for Inactive)
REMARK    1  A    between atoms: C_2  and  C_3
REMARK    2  A    between atoms: C_3  and  C_4
REMARK    3  A    between atoms: C_4  and  C_5
REMARK    4  A    between atoms: C_5  and  C_6
REMARK    5  A    between atoms: C_6  and  C_7
REMARK    6  A    between atoms: C_7  and  C_8
REMARK    7  A    between atoms: C_8  and  C_9
REMARK    8  A    between atoms: C_9  and  C_10
REMARK    9  A    between atoms: C_10  and  N_11
REMARK   10  A    between atoms: N_11  and  C_14
REMARK   11  A    between atoms: C_14  and  C_15
REMARK   12  A    between atoms: C_15  and  C_16
REMARK   13  A    between atoms: C_16  and  C_17
REMARK   14  A    between atoms: C_17  and  C_18
REMARK   15  A    between atoms: C_18  and  C_19
REMARK   16  A    between atoms: C_19  and  C_20
REMARK   17  A    between atoms: C_20  and  C_21
REMARK   18  A    between atoms: C_21  and  C_22
REMARK                            x       y       z     vdW  Elec       q    Type
REMARK                         _______ _______ _______ _____ _____    ______ ____
ROOT
ATOM      1  N   UNL     1       2.850   5.805  -4.353  0.00  0.00    +0.306 N 
ATOM      2  C   UNL     1       4.107   5.178  -3.957  0.00  0.00    +0.171 C 
ATOM      3  C   UNL     1       2.066   6.038  -3.169  0.00  0.00    +0.171 C 
ENDROOT
BRANCH   1   4
ATOM      4  C   UNL     1       3.087   7.010  -5.133  0.00  0.00    +0.109 C 
BRANCH   4   5
ATOM      5  C   UNL     1       3.446   6.502  -6.528  0.00  0.00    +0.061 C 
BRANCH   5   6
ATOM      6  C   UNL     1       2.690   7.358  -7.503  0.00  0.00    +0.006 C 
BRANCH   6   7
ATOM      7  C   UNL     1       2.823   6.891  -8.933  0.00  0.00    +0.000 C 
BRANCH   7   8
ATOM      8  C   UNL     1       3.169   5.407  -8.880  0.00  0.00    +0.000 C 
BRANCH   8   9
ATOM      9  C   UNL     1       4.309   5.072  -9.819  0.00  0.00    +0.000 C 
BRANCH   9  10
ATOM     10  C   UNL     1       5.091   6.318 -10.153  0.00  0.00    +0.000 C 
BRANCH  10  11
ATOM     11  C   UNL     1       6.555   5.982  -9.944  0.00  0.00    +0.000 C 
BRANCH  11  13
ATOM     12  C   UNL     1       6.471   7.936 -11.465  0.00  0.00    +0.000 C 
ATOM     13  C   UNL     1       7.357   7.122 -10.542  0.00  0.00    +0.000 C 
ENDBRANCH  11  13
ENDBRANCH  10  11
ENDBRANCH   9  10
ENDBRANCH   8   9
ENDBRANCH   7   8
ENDBRANCH   6   7
ENDBRANCH   5   6
ENDBRANCH   4   5
ENDBRANCH   1   4
BRANCH   1  14
ATOM     14  C   UNL     1       2.208   4.837  -5.240  0.00  0.00    +0.109 C 
BRANCH  14  15
ATOM     15  C   UNL     1       0.716   4.952  -4.937  0.00  0.00    +0.061 C 
BRANCH  15  16
ATOM     16  C   UNL     1      -0.078   5.211  -6.201  0.00  0.00    +0.006 C 
BRANCH  16  17
ATOM     17  C   UNL     1      -1.332   5.958  -5.759  0.00  0.00    +0.000 C 
BRANCH  17  18
ATOM     18  C   UNL     1      -0.897   7.275  -5.145  0.00  0.00    +0.000 C 
BRANCH  18  19
ATOM     19  C   UNL     1      -1.868   7.770  -4.107  0.00  0.00    +0.000 C 
BRANCH  19  20
ATOM     20  C   UNL     1      -2.968   6.786  -3.811  0.00  0.00    +0.000 C 
BRANCH  20  21
ATOM     21  C   UNL     1      -3.136   6.696  -2.303  0.00  0.00    +0.000 C 
BRANCH  21  22
ATOM     22  C   UNL     1      -1.811   7.000  -1.654  0.00  0.00    +0.000 C 
ATOM     23  C   UNL     1      -1.149   5.757  -1.117  0.00  0.00    +0.000 C 
ENDBRANCH  21  22
ENDBRANCH  20  21
ENDBRANCH  19  20
ENDBRANCH  18  19
ENDBRANCH  17  18
ENDBRANCH  16  17
ENDBRANCH  15  16
ENDBRANCH  14  15
ENDBRANCH   1  14
TORSDOF 18
ENDMDL
MODEL 7
REMARK VINA RESULT:      -5.8      1.606      8.504
REMARK  Name = 
REMARK  18 active torsions:
REMARK  status: ('A' for Active; 'I' for Inactive)
REMARK    1  A    between atoms: C_2  and  C_3
REMARK    2  A    between atoms: C_3  and  C_4
REMARK    3  A    between atoms: C_4  and  C_5
REMARK    4  A    between atoms: C_5  and  C_6
REMARK    5  A    between atoms: C_6  and  C_7
REMARK    6  A    between atoms: C_7  and  C_8
REMARK    7  A    between atoms: C_8  and  C_9
REMARK    8  A    between atoms: C_9  and  C_10
REMARK    9  A    between atoms: C_10  and  N_11
REMARK   10  A    between atoms: N_11  and  C_14
REMARK   11  A    between atoms: C_14  and  C_15
REMARK   12  A    between atoms: C_15  and  C_16
REMARK   13  A    between atoms: C_16  and  C_17
REMARK   14  A    between atoms: C_17  and  C_18
REMARK   15  A    between atoms: C_18  and  C_19
REMARK   16  A    between atoms: C_19  and  C_20
REMARK   17  A    between atoms: C_20  and  C_21
REMARK   18  A    between atoms: C_21  and  C_22
REMARK                            x       y       z     vdW  Elec       q    Type
REMARK                         _______ _______ _______ _____ _____    ______ ____
ROOT
ATOM      1  N   UNL     1       3.642   6.197  -2.964  0.00  0.00    +0.306 N 
ATOM      2  C   UNL     1       4.232   6.186  -1.629  0.00  0.00    +0.171 C 
ATOM      3  C   UNL     1       3.449   7.566  -3.363  0.00  0.00    +0.171 C 
ENDROOT
BRANCH   1   4
ATOM      4  C   UNL     1       4.451   5.433  -3.902  0.00  0.00    +0.109 C 
BRANCH   4   5
ATOM      5  C   UNL     1       4.688   6.384  -5.072  0.00  0.00    +0.061 C 
BRANCH   5   6
ATOM      6  C   UNL     1       4.410   5.601  -6.323  0.00  0.00    +0.006 C 
BRANCH   6   7
ATOM      7  C   UNL     1       3.559   6.352  -7.320  0.00  0.00    +0.000 C 
BRANCH   7   8
ATOM      8  C   UNL     1       2.883   5.304  -8.197  0.00  0.00    +0.000 C 
BRANCH   8   9
ATOM      9  C   UNL     1       3.133   5.570  -9.668  0.00  0.00    +0.000 C 
BRANCH   9  10
ATOM     10  C   UNL     1       4.101   6.715  -9.831  0.00  0.00    +0.000 C 
BRANCH  10  11
ATOM     11  C   UNL     1       5.035   6.337 -10.965  0.00  0.00    +0.000 C 
BRANCH  11  13
ATOM     12  C   UNL     1       6.815   5.716  -9.357  0.00  0.00    +0.000 C 
ATOM     13  C   UNL     1       6.444   6.646 -10.497  0.00  0.00    +0.000 C 
ENDBRANCH  11  13
ENDBRANCH  10  11
ENDBRANCH   9  10
ENDBRANCH   8   9
ENDBRANCH   7   8
ENDBRANCH   6   7
ENDBRANCH   5   6
ENDBRANCH   4   5
ENDBRANCH   1   4
BRANCH   1  14
ATOM     14  C   UNL     1       2.369   5.493  -2.821  0.00  0.00    +0.109 C 
BRANCH  14  15
ATOM     15  C   UNL     1       1.408   6.223  -3.755  0.00  0.00    +0.061 C 
BRANCH  15  16
ATOM     16  C   UNL     1       0.855   5.285  -4.808  0.00  0.00    +0.006 C 
BRANCH  16  17
ATOM     17  C   UNL     1       0.086   6.166  -5.788  0.00  0.00    +0.000 C 
BRANCH  17  18
ATOM     18  C   UNL     1      -0.935   5.295  -6.494  0.00  0.00    +0.000 C 
BRANCH  18  19
ATOM     19  C   UNL     1      -2.342   5.792  -6.298  0.00  0.00    +0.000 C 
BRANCH  19  20
ATOM     20  C   UNL     1      -2.558   6.442  -4.958  0.00  0.00    +0.000 C 
BRANCH  20  21
ATOM     21  C   UNL     1      -2.960   5.366  -3.963  0.00  0.00    +0.000 C 
BRANCH  21  22
ATOM     22  C   UNL     1      -2.762   5.904  -2.569  0.00  0.00    +0.000 C 
ATOM     23  C   UNL     1      -2.169   7.290  -2.581  0.00  0.00    +0.000 C 
ENDBRANCH  21  22
ENDBRANCH  20  21
ENDBRANCH  19  20
ENDBRANCH  18  19
ENDBRANCH  17  18
ENDBRANCH  16  17
ENDBRANCH  15  16
ENDBRANCH  14  15
ENDBRANCH   1  14
TORSDOF 18
ENDMDL
MODEL 8
REMARK VINA RESULT:      -5.8      1.247      9.491
REMARK  Name = 
REMARK  18 active torsions:
REMARK  status: ('A' for Active; 'I' for Inactive)
REMARK    1  A    between atoms: C_2  and  C_3
REMARK    2  A    between atoms: C_3  and  C_4
REMARK    3  A    between atoms: C_4  and  C_5
REMARK    4  A    between atoms: C_5  and  C_6
REMARK    5  A    between atoms: C_6  and  C_7
REMARK    6  A    between atoms: C_7  and  C_8
REMARK    7  A    between atoms: C_8  and  C_9
REMARK    8  A    between atoms: C_9  and  C_10
REMARK    9  A    between atoms: C_10  and  N_11
REMARK   10  A    between atoms: N_11  and  C_14
REMARK   11  A    between atoms: C_14  and  C_15
REMARK   12  A    between atoms: C_15  and  C_16
REMARK   13  A    between atoms: C_16  and  C_17
REMARK   14  A    between atoms: C_17  and  C_18
REMARK   15  A    between atoms: C_18  and  C_19
REMARK   16  A    between atoms: C_19  and  C_20
REMARK   17  A    between atoms: C_20  and  C_21
REMARK   18  A    between atoms: C_21  and  C_22
REMARK                            x       y       z     vdW  Elec       q    Type
REMARK                         _______ _______ _______ _____ _____    ______ ____
ROOT
ATOM      1  N   UNL     1       1.097   5.591  -6.923  0.00  0.00    +0.306 N 
ATOM      2  C   UNL     1       1.356   4.548  -5.935  0.00  0.00    +0.171 C 
ATOM      3  C   UNL     1       1.376   6.867  -6.320  0.00  0.00    +0.171 C 
ENDROOT
BRANCH   1   4
ATOM      4  C   UNL     1       1.851   5.354  -8.145  0.00  0.00    +0.109 C 
BRANCH   4   5
ATOM      5  C   UNL     1       2.995   6.364  -8.095  0.00  0.00    +0.061 C 
BRANCH   5   6
ATOM      6  C   UNL     1       3.640   6.348  -9.451  0.00  0.00    +0.006 C 
BRANCH   6   7
ATOM      7  C   UNL     1       4.402   5.075  -9.733  0.00  0.00    +0.000 C 
BRANCH   7   8
ATOM      8  C   UNL     1       5.522   4.996  -8.701  0.00  0.00    +0.000 C 
BRANCH   8   9
ATOM      9  C   UNL     1       6.632   5.979  -9.015  0.00  0.00    +0.000 C 
BRANCH   9  10
ATOM     10  C   UNL     1       7.709   5.304  -9.825  0.00  0.00    +0.000 C 
BRANCH  10  11
ATOM     11  C   UNL     1       7.989   6.205 -11.013  0.00  0.00    +0.000 C 
BRANCH  11  13
ATOM     12  C   UNL     1       6.361   7.740 -12.076  0.00  0.00    +0.000 C 
ATOM     13  C   UNL     1       7.161   7.460 -10.819  0.00  0.00    +0.000 C 
ENDBRANCH  11  13
ENDBRANCH  10  11
ENDBRANCH   9  10
ENDBRANCH   8   9
ENDBRANCH   7   8
ENDBRANCH   6   7
ENDBRANCH   5   6
ENDBRANCH   4   5
ENDBRANCH   1   4
BRANCH   1  14
ATOM     14  C   UNL     1      -0.319   5.451  -7.257  0.00  0.00    +0.109 C 
BRANCH  14  15
ATOM     15  C   UNL     1      -1.049   5.527  -5.919  0.00  0.00    +0.061 C 
BRANCH  15  16
ATOM     16  C   UNL     1      -2.487   5.968  -6.107  0.00  0.00    +0.006 C 
BRANCH  16  17
ATOM     17  C   UNL     1      -2.601   7.323  -5.418  0.00  0.00    +0.000 C 
BRANCH  17  18
ATOM     18  C   UNL     1      -1.577   7.365  -4.300  0.00  0.00    +0.000 C 
BRANCH  18  19
ATOM     19  C   UNL     1      -2.182   7.784  -2.987  0.00  0.00    +0.000 C 
BRANCH  19  20
ATOM     20  C   UNL     1      -3.027   6.710  -2.356  0.00  0.00    +0.000 C 
BRANCH  20  21
ATOM     21  C   UNL     1      -2.193   5.444  -2.252  0.00  0.00    +0.000 C 
BRANCH  21  22
ATOM     22  C   UNL     1      -1.141   5.648  -1.192  0.00  0.00    +0.000 C 
ATOM     23  C   UNL     1       0.223   5.213  -1.662  0.00  0.00    +0.000 C 
ENDBRANCH  21  22
ENDBRANCH  20  21
ENDBRANCH  19  20
ENDBRANCH  18  19
ENDBRANCH  17  18
ENDBRANCH  16  17
ENDBRANCH  15  16
ENDBRANCH  14  15
ENDBRANCH   1  14
TORSDOF 18
ENDMDL
MODEL 9
REMARK VINA RESULT:      -5.8      1.976      4.522
REMARK  Name = 
REMARK  18 active torsions:
REMARK  status: ('A' for Active; 'I' for Inactive)
REMARK    1  A    between atoms: C_2  and  C_3
REMARK    2  A    between atoms: C_3  and  C_4
REMARK    3  A    between atoms: C_4  and  C_5
REMARK    4  A    between atoms: C_5  and  C_6
REMARK    5  A    between atoms: C_6  and  C_7
REMARK    6  A    between atoms: C_7  and  C_8
REMARK    7  A    between atoms: C_8  and  C_9
REMARK    8  A    between atoms: C_9  and  C_10
REMARK    9  A    between atoms: C_10  and  N_11
REMARK   10  A    between atoms: N_11  and  C_14
REMARK   11  A    between atoms: C_14  and  C_15
REMARK   12  A    between atoms: C_15  and  C_16
REMARK   13  A    between atoms: C_16  and  C_17
REMARK   14  A    between atoms: C_17  and  C_18
REMARK   15  A    between atoms: C_18  and  C_19
REMARK   16  A    between atoms: C_19  and  C_20
REMARK   17  A    between atoms: C_20  and  C_21
REMARK   18  A    between atoms: C_21  and  C_22
REMARK                            x       y       z     vdW  Elec       q    Type
REMARK                         _______ _______ _______ _____ _____    ______ ____
ROOT
ATOM      1  N   UNL     1       2.854   5.939  -4.512  0.00  0.00    +0.306 N 
ATOM      2  C   UNL     1       3.642   7.153  -4.699  0.00  0.00    +0.171 C 
ATOM      3  C   UNL     1       3.331   5.267  -3.332  0.00  0.00    +0.171 C 
ENDROOT
BRANCH   1   4
ATOM      4  C   UNL     1       1.431   6.237  -4.469  0.00  0.00    +0.109 C 
BRANCH   4   5
ATOM      5  C   UNL     1       0.773   5.089  -5.231  0.00  0.00    +0.061 C 
BRANCH   5   6
ATOM      6  C   UNL     1      -0.604   5.557  -5.607  0.00  0.00    +0.006 C 
BRANCH   6   7
ATOM      7  C   UNL     1      -0.965   5.253  -7.041  0.00  0.00    +0.000 C 
BRANCH   7   8
ATOM      8  C   UNL     1       0.285   5.512  -7.874  0.00  0.00    +0.000 C 
BRANCH   8   9
ATOM      9  C   UNL     1      -0.017   5.454  -9.357  0.00  0.00    +0.000 C 
BRANCH   9  10
ATOM     10  C   UNL     1       0.620   6.624 -10.063  0.00  0.00    +0.000 C 
BRANCH  10  11
ATOM     11  C   UNL     1       0.208   6.530 -11.520  0.00  0.00    +0.000 C 
BRANCH  11  13
ATOM     12  C   UNL     1       2.392   6.083 -12.601  0.00  0.00    +0.000 C 
ATOM     13  C   UNL     1       1.081   5.465 -12.156  0.00  0.00    +0.000 C 
ENDBRANCH  11  13
ENDBRANCH  10  11
ENDBRANCH   9  10
ENDBRANCH   8   9
ENDBRANCH   7   8
ENDBRANCH   6   7
ENDBRANCH   5   6
ENDBRANCH   4   5
ENDBRANCH   1   4
BRANCH   1  14
ATOM     14  C   UNL     1       3.092   5.145  -5.716  0.00  0.00    +0.109 C 
BRANCH  14  15
ATOM     15  C   UNL     1       3.857   6.073  -6.655  0.00  0.00    +0.061 C 
BRANCH  15  16
ATOM     16  C   UNL     1       4.522   5.292  -7.771  0.00  0.00    +0.006 C 
BRANCH  16  17
ATOM     17  C   UNL     1       4.119   5.990  -9.065  0.00  0.00    +0.000 C 
BRANCH  17  18
ATOM     18  C   UNL     1       5.351   6.088  -9.944  0.00  0.00    +0.000 C 
BRANCH  18  19
ATOM     19  C   UNL     1       5.357   7.337 -10.783  0.00  0.00    +0.000 C 
BRANCH  19  20
ATOM     20  C   UNL     1       6.675   7.585 -11.464  0.00  0.00    +0.000 C 
BRANCH  20  21
ATOM     21  C   UNL     1       7.685   6.580 -10.935  0.00  0.00    +0.000 C 
BRANCH  21  22
ATOM     22  C   UNL     1       8.473   6.035 -12.098  0.00  0.00    +0.000 C 
ATOM     23  C   UNL     1       7.576   5.573 -13.218  0.00  0.00    +0.000 C 
ENDBRANCH  21  22
ENDBRANCH  20  21
ENDBRANCH  19  20
ENDBRANCH  18  19
ENDBRANCH  17  18
ENDBRANCH  16  17
ENDBRANCH  15  16
ENDBRANCH  14  15
ENDBRANCH   1  14
TORSDOF 18
ENDMDL
