MODEL 1
REMARK VINA RESULT:      -4.4      0.000      0.000
REMARK  Name = 
REMARK  2 active torsions:
REMARK  status: ('A' for Active; 'I' for Inactive)
REMARK    1  A    between atoms: C_2  and  P_4
REMARK    2  A    between atoms: C_2  and  P_8
REMARK                            x       y       z     vdW  Elec       q    Type
REMARK                         _______ _______ _______ _____ _____    ______ ____
ROOT
ATOM      1  C   UNL     1       4.303   5.825  -7.113  0.00  0.00    +0.048 C 
ATOM      2  C   UNL     1       3.275   6.423  -6.198  0.00  0.00    +0.216 C 
ATOM      3  O   UNL     1       3.833   7.494  -5.528  0.00  0.00    -0.211 OA
ENDROOT
BRANCH   2   4
ATOM      4  P   UNL     1       1.757   6.898  -7.098  0.00  0.00    +0.151 P 
ATOM      5  O   UNL     1       0.478   7.094  -6.010  0.00  0.00    -0.355 OA
ATOM      6  O   UNL     1       2.149   8.371  -7.855  0.00  0.00    -0.355 OA
ATOM      7  O   UNL     1       1.459   5.822  -8.119  0.00  0.00    -0.457 OA
ENDBRANCH   2   4
BRANCH   2   8
ATOM      8  P   UNL     1       2.670   5.229  -4.959  0.00  0.00    +0.151 P 
ATOM      9  O   UNL     1       2.085   6.071  -3.608  0.00  0.00    -0.355 OA
ATOM     10  O   UNL     1       4.066   4.389  -4.460  0.00  0.00    -0.355 OA
ATOM     11  O   UNL     1       1.650   4.295  -5.535  0.00  0.00    -0.457 OA
ENDBRANCH   2   8
TORSDOF 2
ENDMDL
MODEL 2
REMARK VINA RESULT:      -4.3      5.675      7.143
REMARK  Name = 
REMARK  2 active torsions:
REMARK  status: ('A' for Active; 'I' for Inactive)
REMARK    1  A    between atoms: C_2  and  P_4
REMARK    2  A    between atoms: C_2  and  P_8
REMARK                            x       y       z     vdW  Elec       q    Type
REMARK                         _______ _______ _______ _____ _____    ______ ____
ROOT
ATOM      1  C   UNL     1       6.499   7.814 -11.267  0.00  0.00    +0.048 C 
ATOM      2  C   UNL     1       6.071   6.376 -11.222  0.00  0.00    +0.216 C 
ATOM      3  O   UNL     1       6.897   5.685 -10.357  0.00  0.00    -0.211 OA
ENDROOT
BRANCH   2   4
ATOM      4  P   UNL     1       4.310   6.206 -10.765  0.00  0.00    +0.151 P 
ATOM      5  O   UNL     1       3.340   6.350 -12.142  0.00  0.00    -0.355 OA
ATOM      6  O   UNL     1       4.189   4.647 -10.091  0.00  0.00    -0.355 OA
ATOM      7  O   UNL     1       3.984   7.270  -9.741  0.00  0.00    -0.457 OA
ENDBRANCH   2   4
BRANCH   2   8
ATOM      8  P   UNL     1       6.158   5.574 -12.857  0.00  0.00    +0.151 P 
ATOM      9  O   UNL     1       7.667   4.820 -13.032  0.00  0.00    -0.355 OA
ATOM     10  O   UNL     1       6.112   6.866 -13.968  0.00  0.00    -0.355 OA
ATOM     11  O   UNL     1       5.018   4.627 -13.076  0.00  0.00    -0.457 OA
ENDBRANCH   2   8
TORSDOF 2
ENDMDL
MODEL 3
REMARK VINA RESULT:      -4.3      3.581      4.881
REMARK  Name = 
REMARK  2 active torsions:
REMARK  status: ('A' for Active; 'I' for Inactive)
REMARK    1  A    between atoms: C_2  and  P_4
REMARK    2  A    between atoms: C_2  and  P_8
REMARK                            x       y       z     vdW  Elec       q    Type
REMARK                         _______ _______ _______ _____ _____    ______ ____
ROOT
ATOM      1  C   UNL     1      -1.715   7.736  -4.454  0.00  0.00    +0.048 C 
ATOM      2  C   UNL     1      -1.212   6.331  -4.290  0.00  0.00    +0.216 C 
ATOM      3  O   UNL     1      -2.009   5.476  -5.027  0.00  0.00    -0.211 OA
ENDROOT
BRANCH   2   4
ATOM      4  P   UNL     1       0.551   6.182  -4.744  0.00  0.00    +0.151 P 
ATOM      5  O   UNL     1       0.921   4.571  -5.098  0.00  0.00    -0.355 OA
ATOM      6  O   UNL     1       0.726   7.168  -6.120  0.00  0.00    -0.355 OA
ATOM      7  O   UNL     1       1.380   6.703  -3.591  0.00  0.00    -0.457 OA
ENDBRANCH   2   4
BRANCH   2   8
ATOM      8  P   UNL     1      -1.244   5.781  -2.551  0.00  0.00    +0.151 P 
ATOM      9  O   UNL     1       0.028   4.693  -2.284  0.00  0.00    -0.355 OA
ATOM     10  O   UNL     1      -2.696   4.899  -2.410  0.00  0.00    -0.355 OA
ATOM     11  O   UNL     1      -1.216   6.938  -1.599  0.00  0.00    -0.457 OA
ENDBRANCH   2   8
TORSDOF 2
ENDMDL
MODEL 4
REMARK VINA RESULT:      -4.3      2.170      3.516
REMARK  Name = 
REMARK  2 active torsions:
REMARK  status: ('A' for Active; 'I' for Inactive)
REMARK    1  A    between atoms: C_2  and  P_4
REMARK    2  A    between atoms: C_2  and  P_8
REMARK                            x       y       z     vdW  Elec       q    Type
REMARK                         _______ _______ _______ _____ _____    ______ ____
ROOT
ATOM      1  C   UNL     1       0.519   6.151  -9.469  0.00  0.00    +0.048 C 
ATOM      2  C   UNL     1       1.403   5.704  -8.341  0.00  0.00    +0.216 C 
ATOM      3  O   UNL     1       1.933   4.465  -8.644  0.00  0.00    -0.211 OA
ENDROOT
BRANCH   2   4
ATOM      4  P   UNL     1       2.706   6.931  -7.971  0.00  0.00    +0.151 P 
ATOM      5  O   UNL     1       3.476   6.534  -6.519  0.00  0.00    -0.355 OA
ATOM      6  O   UNL     1       3.783   6.824  -9.285  0.00  0.00    -0.355 OA
ATOM      7  O   UNL     1       2.061   8.297  -7.903  0.00  0.00    -0.457 OA
ENDBRANCH   2   4
BRANCH   2   8
ATOM      8  P   UNL     1       0.498   5.567  -6.763  0.00  0.00    +0.151 P 
ATOM      9  O   UNL     1       1.137   4.281  -5.861  0.00  0.00    -0.355 OA
ATOM     10  O   UNL     1      -1.084   5.123  -7.217  0.00  0.00    -0.355 OA
ATOM     11  O   UNL     1       0.504   6.857  -6.002  0.00  0.00    -0.457 OA
ENDBRANCH   2   8
TORSDOF 2
ENDMDL
MODEL 5
REMARK VINA RESULT:      -4.2      3.608      4.991
REMARK  Name = 
REMARK  2 active torsions:
REMARK  status: ('A' for Active; 'I' for Inactive)
REMARK    1  A    between atoms: C_2  and  P_4
REMARK    2  A    between atoms: C_2  and  P_8
REMARK                            x       y       z     vdW  Elec       q    Type
REMARK                         _______ _______ _______ _____ _____    ______ ____
ROOT
ATOM      1  C   UNL     1      -2.195   5.800  -5.545  0.00  0.00    +0.048 C 
ATOM      2  C   UNL     1      -1.288   6.418  -4.521  0.00  0.00    +0.216 C 
ATOM      3  O   UNL     1      -1.477   7.786  -4.516  0.00  0.00    -0.211 OA
ENDROOT
BRANCH   2   4
ATOM      4  P   UNL     1      -1.537   5.689  -2.864  0.00  0.00    +0.151 P 
ATOM      5  O   UNL     1      -0.174   4.792  -2.418  0.00  0.00    -0.355 OA
ATOM      6  O   UNL     1      -1.755   7.026  -1.834  0.00  0.00    -0.355 OA
ATOM      7  O   UNL     1      -2.779   4.827  -2.910  0.00  0.00    -0.457 OA
ENDBRANCH   2   4
BRANCH   2   8
ATOM      8  P   UNL     1       0.473   6.087  -4.864  0.00  0.00    +0.151 P 
ATOM      9  O   UNL     1       1.412   6.665  -3.576  0.00  0.00    -0.355 OA
ATOM     10  O   UNL     1       0.832   7.054  -6.220  0.00  0.00    -0.355 OA
ATOM     11  O   UNL     1       0.723   4.637  -5.147  0.00  0.00    -0.457 OA
ENDBRANCH   2   8
TORSDOF 2
ENDMDL
MODEL 6
REMARK VINA RESULT:      -4.2      4.139      5.354
REMARK  Name = 
REMARK  2 active torsions:
REMARK  status: ('A' for Active; 'I' for Inactive)
REMARK    1  A    between atoms: C_2  and  P_4
REMARK    2  A    between atoms: C_2  and  P_8
REMARK                            x       y       z     vdW  Elec       q    Type
REMARK                         _______ _______ _______ _____ _____    ______ ____
ROOT
ATOM      1  C   UNL     1      -2.336   7.173  -2.394  0.00  0.00    +0.048 C 
ATOM      2  C   UNL     1      -1.532   5.955  -2.746  0.00  0.00    +0.216 C 
ATOM      3  O   UNL     1      -2.286   4.826  -2.493  0.00  0.00    -0.211 OA
ENDROOT
BRANCH   2   4
ATOM      4  P   UNL     1      -0.942   6.008  -4.475  0.00  0.00    +0.151 P 
ATOM      5  O   UNL     1       0.356   4.942  -4.674  0.00  0.00    -0.355 OA
ATOM      6  O   UNL     1      -2.283   5.520  -5.403  0.00  0.00    -0.355 OA
ATOM      7  O   UNL     1      -0.545   7.432  -4.794  0.00  0.00    -0.457 OA
ENDBRANCH   2   4
BRANCH   2   8
ATOM      8  P   UNL     1       0.011   5.839  -1.781  0.00  0.00    +0.151 P 
ATOM      9  O   UNL     1       0.387   4.206  -1.520  0.00  0.00    -0.355 OA
ATOM     10  O   UNL     1      -0.383   6.511  -0.265  0.00  0.00    -0.355 OA
ATOM     11  O   UNL     1       1.135   6.586  -2.431  0.00  0.00    -0.457 OA
ENDBRANCH   2   8
TORSDOF 2
ENDMDL
MODEL 7
REMARK VINA RESULT:      -4.2      1.915      2.456
REMARK  Name = 
REMARK  2 active torsions:
REMARK  status: ('A' for Active; 'I' for Inactive)
REMARK    1  A    between atoms: C_2  and  P_4
REMARK    2  A    between atoms: C_2  and  P_8
REMARK                            x       y       z     vdW  Elec       q    Type
REMARK                         _______ _______ _______ _____ _____    ______ ____
ROOT
ATOM      1  C   UNL     1       2.725   4.092  -8.566  0.00  0.00    +0.048 C 
ATOM      2  C   UNL     1       2.709   5.350  -7.748  0.00  0.00    +0.216 C 
ATOM      3  O   UNL     1       3.874   5.425  -7.010  0.00  0.00    -0.211 OA
ENDROOT
BRANCH   2   4
ATOM      4  P   UNL     1       2.464   6.833  -8.787  0.00  0.00    +0.151 P 
ATOM      5  O   UNL     1       2.156   8.178  -7.809  0.00  0.00    -0.355 OA
ATOM      6  O   UNL     1       3.930   7.013  -9.633  0.00  0.00    -0.355 OA
ATOM      7  O   UNL     1       1.317   6.560  -9.735  0.00  0.00    -0.457 OA
ENDBRANCH   2   4
BRANCH   2   8
ATOM      8  P   UNL     1       1.298   5.410  -6.594  0.00  0.00    +0.151 P 
ATOM      9  O   UNL     1       1.669   6.452  -5.309  0.00  0.00    -0.355 OA
ATOM     10  O   UNL     1       1.207   3.834  -5.951  0.00  0.00    -0.355 OA
ATOM     11  O   UNL     1       0.025   5.789  -7.287  0.00  0.00    -0.457 OA
ENDBRANCH   2   8
TORSDOF 2
ENDMDL
MODEL 8
REMARK VINA RESULT:      -4.0      1.897      4.130
REMARK  Name = 
REMARK  2 active torsions:
REMARK  status: ('A' for Active; 'I' for Inactive)
REMARK    1  A    between atoms: C_2  and  P_4
REMARK    2  A    between atoms: C_2  and  P_8
REMARK                            x       y       z     vdW  Elec       q    Type
REMARK                         _______ _______ _______ _____ _____    ______ ____
ROOT
ATOM      1  C   UNL     1       2.666   4.135  -8.411  0.00  0.00    +0.048 C 
ATOM      2  C   UNL     1       2.399   5.421  -7.685  0.00  0.00    +0.216 C 
ATOM      3  O   UNL     1       1.121   5.388  -7.161  0.00  0.00    -0.211 OA
ENDROOT
BRANCH   2   4
ATOM      4  P   UNL     1       3.655   5.748  -6.399  0.00  0.00    +0.151 P 
ATOM      5  O   UNL     1       3.545   7.354  -5.881  0.00  0.00    -0.355 OA
ATOM      6  O   UNL     1       3.271   4.671  -5.138  0.00  0.00    -0.355 OA
ATOM      7  O   UNL     1       5.017   5.444  -6.982  0.00  0.00    -0.457 OA
ENDBRANCH   2   4
BRANCH   2   8
ATOM      8  P   UNL     1       2.530   6.876  -8.777  0.00  0.00    +0.151 P 
ATOM      9  O   UNL     1       2.011   8.255  -7.938  0.00  0.00    -0.355 OA
ATOM     10  O   UNL     1       1.393   6.583 -10.013  0.00  0.00    -0.355 OA
ATOM     11  O   UNL     1       3.911   7.032  -9.335  0.00  0.00    -0.457 OA
ENDBRANCH   2   8
TORSDOF 2
ENDMDL
MODEL 9
REMARK VINA RESULT:      -4.0      2.040      3.528
REMARK  Name = 
REMARK  2 active torsions:
REMARK  status: ('A' for Active; 'I' for Inactive)
REMARK    1  A    between atoms: C_2  and  P_4
REMARK    2  A    between atoms: C_2  and  P_8
REMARK                            x       y       z     vdW  Elec       q    Type
REMARK                         _______ _______ _______ _____ _____    ______ ____
ROOT
ATOM      1  C   UNL     1       2.625   4.597  -6.100  0.00  0.00    +0.048 C 
ATOM      2  C   UNL     1       3.047   5.782  -6.918  0.00  0.00    +0.216 C 
ATOM      3  O   UNL     1       3.872   6.587  -6.157  0.00  0.00    -0.211 OA
ENDROOT
BRANCH   2   4
ATOM      4  P   UNL     1       3.843   5.278  -8.484  0.00  0.00    +0.151 P 
ATOM      5  O   UNL     1       3.685   6.507  -9.634  0.00  0.00    -0.355 OA
ATOM      6  O   UNL     1       5.477   5.028  -8.075  0.00  0.00    -0.355 OA
ATOM      7  O   UNL     1       3.195   3.993  -8.950  0.00  0.00    -0.457 OA
ENDBRANCH   2   4
BRANCH   2   8
ATOM      8  P   UNL     1       1.628   6.783  -7.474  0.00  0.00    +0.151 P 
ATOM      9  O   UNL     1       2.161   8.345  -7.863  0.00  0.00    -0.355 OA
ATOM     10  O   UNL     1       0.637   6.921  -6.094  0.00  0.00    -0.355 OA
ATOM     11  O   UNL     1       0.895   6.132  -8.607  0.00  0.00    -0.457 OA
ENDBRANCH   2   8
TORSDOF 2
ENDMDL
