MODEL 1
REMARK VINA RESULT:      -8.2      0.000      0.000
REMARK  Name = 
REMARK  7 active torsions:
REMARK  status: ('A' for Active; 'I' for Inactive)
REMARK    1  A    between atoms: O_2  and  C_3
REMARK    2  A    between atoms: C_3  and  C_4
REMARK    3  A    between atoms: C_3  and  C_10
REMARK    4  A    between atoms: C_3  and  C_16
REMARK    5  A    between atoms: C_16  and  O_17
REMARK    6  A    between atoms: C_16  and  C_26
REMARK    7  A    between atoms: O_17  and  C_18
REMARK                            x       y       z     vdW  Elec       q    Type
REMARK                         _______ _______ _______ _____ _____    ______ ____
ROOT
ATOM      1  C   UNL     1       2.204   5.334  -6.797  0.00  0.00    +0.178 C 
ENDROOT
BRANCH   1   2
ATOM      2  C   UNL     1       0.906   5.855  -6.568  0.00  0.00    +0.010 A 
ATOM      3  C   UNL     1       0.740   6.834  -5.589  0.00  0.00    -0.002 A 
ATOM      4  C   UNL     1      -0.479   7.236  -5.121  0.00  0.00    -0.000 A 
ATOM      5  C   UNL     1      -1.570   6.431  -5.385  0.00  0.00    -0.000 A 
ATOM      6  C   UNL     1      -1.479   5.649  -6.530  0.00  0.00    -0.000 A 
ATOM      7  C   UNL     1      -0.281   5.538  -7.219  0.00  0.00    -0.002 A 
ENDBRANCH   1   2
BRANCH   1   8
ATOM      8  C   UNL     1       3.153   5.837  -5.749  0.00  0.00    +0.010 A 
ATOM      9  C   UNL     1       3.512   7.155  -5.660  0.00  0.00    -0.002 A 
ATOM     10  C   UNL     1       4.452   7.498  -4.715  0.00  0.00    -0.000 A 
ATOM     11  C   UNL     1       5.004   6.504  -3.925  0.00  0.00    -0.000 A 
ATOM     12  C   UNL     1       4.203   5.424  -3.632  0.00  0.00    -0.000 A 
ATOM     13  C   UNL     1       3.277   5.060  -4.604  0.00  0.00    -0.002 A 
ENDBRANCH   1   8
BRANCH   1  15
ATOM     14  C   UNL     1       2.042   3.273  -6.503  0.00  0.00    +0.175 C 
ATOM     15  O   UNL     1       2.414   3.999  -6.840  0.00  0.00    -0.344 OA
ENDBRANCH   1  15
BRANCH   1  16
ATOM     16  C   UNL     1       2.870   5.985  -8.175  0.00  0.00    +0.303 C 
BRANCH  16  17
ATOM     17  C   UNL     1       4.245   5.093  -8.091  0.00  0.00    +0.407 C 
ATOM     18  O   UNL     1       4.079   4.096  -9.069  0.00  0.00    -0.242 OA
ATOM     19  O   UNL     1       5.288   5.745  -8.324  0.00  0.00    -0.242 OA
ENDBRANCH  16  17
BRANCH  16  20
ATOM     20  O   UNL     1       2.201   4.942  -9.132  0.00  0.00    -0.435 OA
BRANCH  20  21
ATOM     21  C   UNL     1       1.713   5.524 -10.305  0.00  0.00    +0.320 A 
ATOM     22  N   UNL     1       0.960   6.651 -10.323  0.00  0.00    -0.199 NA
ATOM     23  C   UNL     1       0.315   6.853 -11.502  0.00  0.00    +0.065 A 
ATOM     24  C   UNL     1      -0.893   7.731 -11.581  0.00  0.00    +0.052 C 
ATOM     25  C   UNL     1       1.115   6.815 -12.629  0.00  0.00    +0.030 A 
ATOM     26  C   UNL     1       2.140   5.906 -12.606  0.00  0.00    +0.065 A 
ATOM     27  C   UNL     1       3.115   5.798 -13.729  0.00  0.00    +0.052 C 
ATOM     28  N   UNL     1       2.525   5.447 -11.390  0.00  0.00    -0.199 NA
ENDBRANCH  20  21
ENDBRANCH  16  20
ENDBRANCH   1  16
TORSDOF 7
ENDMDL
MODEL 2
REMARK VINA RESULT:      -8.1      2.515      5.630
REMARK  Name = 
REMARK  7 active torsions:
REMARK  status: ('A' for Active; 'I' for Inactive)
REMARK    1  A    between atoms: O_2  and  C_3
REMARK    2  A    between atoms: C_3  and  C_4
REMARK    3  A    between atoms: C_3  and  C_10
REMARK    4  A    between atoms: C_3  and  C_16
REMARK    5  A    between atoms: C_16  and  O_17
REMARK    6  A    between atoms: C_16  and  C_26
REMARK    7  A    between atoms: O_17  and  C_18
REMARK                            x       y       z     vdW  Elec       q    Type
REMARK                         _______ _______ _______ _____ _____    ______ ____
ROOT
ATOM      1  C   UNL     1       2.799   5.346  -7.497  0.00  0.00    +0.178 C 
ENDROOT
BRANCH   1   2
ATOM      2  C   UNL     1       3.339   5.576  -6.207  0.00  0.00    +0.010 A 
ATOM      3  C   UNL     1       3.548   6.891  -5.793  0.00  0.00    -0.002 A 
ATOM      4  C   UNL     1       4.271   7.229  -4.683  0.00  0.00    -0.000 A 
ATOM      5  C   UNL     1       5.092   6.266  -4.130  0.00  0.00    -0.000 A 
ATOM      6  C   UNL     1       4.704   4.949  -4.342  0.00  0.00    -0.000 A 
ATOM      7  C   UNL     1       3.688   4.644  -5.236  0.00  0.00    -0.002 A 
ENDBRANCH   1   2
BRANCH   1   8
ATOM      8  C   UNL     1       3.756   5.822  -8.549  0.00  0.00    +0.010 A 
ATOM      9  C   UNL     1       3.567   6.992  -9.234  0.00  0.00    -0.002 A 
ATOM     10  C   UNL     1       4.459   7.296 -10.237  0.00  0.00    -0.000 A 
ATOM     11  C   UNL     1       5.481   6.405 -10.520  0.00  0.00    -0.000 A 
ATOM     12  C   UNL     1       5.965   5.657  -9.471  0.00  0.00    -0.000 A 
ATOM     13  C   UNL     1       5.051   5.323  -8.477  0.00  0.00    -0.002 A 
ENDBRANCH   1   8
BRANCH   1  15
ATOM     14  C   UNL     1       2.738   3.493  -8.458  0.00  0.00    +0.175 C 
ATOM     15  O   UNL     1       2.450   4.098  -7.885  0.00  0.00    -0.344 OA
ENDBRANCH   1  15
BRANCH   1  16
ATOM     16  C   UNL     1       1.492   6.336  -7.777  0.00  0.00    +0.303 C 
BRANCH  16  17
ATOM     17  C   UNL     1       1.088   5.621  -9.198  0.00  0.00    +0.407 C 
ATOM     18  O   UNL     1      -0.172   5.042  -8.957  0.00  0.00    -0.242 OA
ATOM     19  O   UNL     1       1.010   6.416 -10.162  0.00  0.00    -0.242 OA
ENDBRANCH  16  17
BRANCH  16  20
ATOM     20  O   UNL     1       0.488   5.431  -6.987  0.00  0.00    -0.435 OA
BRANCH  20  21
ATOM     21  C   UNL     1       0.058   6.020  -5.794  0.00  0.00    +0.320 A 
ATOM     22  N   UNL     1      -1.110   6.698  -5.675  0.00  0.00    -0.199 NA
ATOM     23  C   UNL     1      -1.178   7.468  -4.557  0.00  0.00    +0.065 A 
ATOM     24  C   UNL     1      -2.128   8.619  -4.469  0.00  0.00    +0.052 C 
ATOM     25  C   UNL     1      -0.900   6.814  -3.371  0.00  0.00    +0.030 A 
ATOM     26  C   UNL     1       0.074   5.852  -3.429  0.00  0.00    +0.065 A 
ATOM     27  C   UNL     1       0.433   5.030  -2.239  0.00  0.00    +0.052 C 
ATOM     28  N   UNL     1       0.368   5.352  -4.654  0.00  0.00    -0.199 NA
ENDBRANCH  20  21
ENDBRANCH  16  20
ENDBRANCH   1  16
TORSDOF 7
ENDMDL
MODEL 3
REMARK VINA RESULT:      -8.0      0.163      1.587
REMARK  Name = 
REMARK  7 active torsions:
REMARK  status: ('A' for Active; 'I' for Inactive)
REMARK    1  A    between atoms: O_2  and  C_3
REMARK    2  A    between atoms: C_3  and  C_4
REMARK    3  A    between atoms: C_3  and  C_10
REMARK    4  A    between atoms: C_3  and  C_16
REMARK    5  A    between atoms: C_16  and  O_17
REMARK    6  A    between atoms: C_16  and  C_26
REMARK    7  A    between atoms: O_17  and  C_18
REMARK                            x       y       z     vdW  Elec       q    Type
REMARK                         _______ _______ _______ _____ _____    ______ ____
ROOT
ATOM      1  C   UNL     1       2.203   5.378  -6.769  0.00  0.00    +0.178 C 
ENDROOT
BRANCH   1   2
ATOM      2  C   UNL     1       0.896   5.883  -6.555  0.00  0.00    +0.010 A 
ATOM      3  C   UNL     1       0.712   6.880  -5.598  0.00  0.00    -0.002 A 
ATOM      4  C   UNL     1      -0.515   7.274  -5.142  0.00  0.00    -0.000 A 
ATOM      5  C   UNL     1      -1.592   6.446  -5.392  0.00  0.00    -0.000 A 
ATOM      6  C   UNL     1      -1.486   5.642  -6.520  0.00  0.00    -0.000 A 
ATOM      7  C   UNL     1      -0.283   5.534  -7.202  0.00  0.00    -0.002 A 
ENDBRANCH   1   2
BRANCH   1   8
ATOM      8  C   UNL     1       3.126   5.863  -5.691  0.00  0.00    +0.010 A 
ATOM      9  C   UNL     1       3.560   7.159  -5.628  0.00  0.00    -0.002 A 
ATOM     10  C   UNL     1       4.471   7.480  -4.647  0.00  0.00    -0.000 A 
ATOM     11  C   UNL     1       4.918   6.486  -3.793  0.00  0.00    -0.000 A 
ATOM     12  C   UNL     1       4.038   5.468  -3.507  0.00  0.00    -0.000 A 
ATOM     13  C   UNL     1       3.142   5.123  -4.514  0.00  0.00    -0.002 A 
ENDBRANCH   1   8
BRANCH   1  15
ATOM     14  C   UNL     1       2.087   3.312  -6.483  0.00  0.00    +0.175 C 
ATOM     15  O   UNL     1       2.423   4.045  -6.841  0.00  0.00    -0.344 OA
ENDBRANCH   1  15
BRANCH   1  16
ATOM     16  C   UNL     1       2.892   6.067  -8.118  0.00  0.00    +0.303 C 
BRANCH  16  17
ATOM     17  C   UNL     1       4.225   5.111  -8.087  0.00  0.00    +0.407 C 
ATOM     18  O   UNL     1       4.003   4.162  -9.101  0.00  0.00    -0.242 OA
ATOM     19  O   UNL     1       5.294   5.724  -8.308  0.00  0.00    -0.242 OA
ENDBRANCH  16  17
BRANCH  16  20
ATOM     20  O   UNL     1       2.172   5.105  -9.121  0.00  0.00    -0.435 OA
BRANCH  20  21
ATOM     21  C   UNL     1       1.885   5.719 -10.343  0.00  0.00    +0.320 A 
ATOM     22  N   UNL     1       2.269   5.215 -11.541  0.00  0.00    -0.199 NA
ATOM     23  C   UNL     1       2.196   6.114 -12.557  0.00  0.00    +0.065 A 
ATOM     24  C   UNL     1       2.989   5.929 -13.812  0.00  0.00    +0.052 C 
ATOM     25  C   UNL     1       0.978   6.754 -12.695  0.00  0.00    +0.030 A 
ATOM     26  C   UNL     1       0.319   7.046 -11.529  0.00  0.00    +0.065 A 
ATOM     27  C   UNL     1      -1.030   7.681 -11.532  0.00  0.00    +0.052 C 
ATOM     28  N   UNL     1       0.686   6.350 -10.426  0.00  0.00    -0.199 NA
ENDBRANCH  20  21
ENDBRANCH  16  20
ENDBRANCH   1  16
TORSDOF 7
ENDMDL
MODEL 4
REMARK VINA RESULT:      -7.8      2.028      4.127
REMARK  Name = 
REMARK  7 active torsions:
REMARK  status: ('A' for Active; 'I' for Inactive)
REMARK    1  A    between atoms: O_2  and  C_3
REMARK    2  A    between atoms: C_3  and  C_4
REMARK    3  A    between atoms: C_3  and  C_10
REMARK    4  A    between atoms: C_3  and  C_16
REMARK    5  A    between atoms: C_16  and  O_17
REMARK    6  A    between atoms: C_16  and  C_26
REMARK    7  A    between atoms: O_17  and  C_18
REMARK                            x       y       z     vdW  Elec       q    Type
REMARK                         _______ _______ _______ _____ _____    ______ ____
ROOT
ATOM      1  C   UNL     1       1.830   5.260  -7.725  0.00  0.00    +0.178 C 
ENDROOT
BRANCH   1   2
ATOM      2  C   UNL     1       1.335   5.320  -9.052  0.00  0.00    +0.010 A 
ATOM      3  C   UNL     1       1.132   6.570  -9.634  0.00  0.00    -0.002 A 
ATOM      4  C   UNL     1       0.448   6.757 -10.803  0.00  0.00    -0.000 A 
ATOM      5  C   UNL     1      -0.346   5.723 -11.259  0.00  0.00    -0.000 A 
ATOM      6  C   UNL     1       0.043   4.447 -10.869  0.00  0.00    -0.000 A 
ATOM      7  C   UNL     1       1.028   4.270  -9.909  0.00  0.00    -0.002 A 
ENDBRANCH   1   2
BRANCH   1   8
ATOM      8  C   UNL     1       0.836   5.863  -6.776  0.00  0.00    +0.010 A 
ATOM      9  C   UNL     1       0.976   7.130  -6.278  0.00  0.00    -0.002 A 
ATOM     10  C   UNL     1       0.053   7.557  -5.350  0.00  0.00    -0.000 A 
ATOM     11  C   UNL     1      -0.949   6.688  -4.951  0.00  0.00    -0.000 A 
ATOM     12  C   UNL     1      -1.388   5.773  -5.880  0.00  0.00    -0.000 A 
ATOM     13  C   UNL     1      -0.443   5.318  -6.794  0.00  0.00    -0.002 A 
ENDBRANCH   1   8
BRANCH   1  15
ATOM     14  C   UNL     1       1.848   3.538  -6.543  0.00  0.00    +0.175 C 
ATOM     15  O   UNL     1       2.165   4.074  -7.167  0.00  0.00    -0.344 OA
ENDBRANCH   1  15
BRANCH   1  16
ATOM     16  C   UNL     1       3.126   6.284  -7.528  0.00  0.00    +0.303 C 
BRANCH  16  17
ATOM     17  C   UNL     1       3.477   5.762  -6.013  0.00  0.00    +0.407 C 
ATOM     18  O   UNL     1       4.744   5.160  -6.132  0.00  0.00    -0.242 OA
ATOM     19  O   UNL     1       3.522   6.676  -5.159  0.00  0.00    -0.242 OA
ENDBRANCH  16  17
BRANCH  16  20
ATOM     20  O   UNL     1       4.157   5.289  -8.158  0.00  0.00    -0.435 OA
BRANCH  20  21
ATOM     21  C   UNL     1       4.764   5.800  -9.308  0.00  0.00    +0.320 A 
ATOM     22  N   UNL     1       6.105   5.947  -9.443  0.00  0.00    -0.199 NA
ATOM     23  C   UNL     1       6.461   6.760 -10.472  0.00  0.00    +0.065 A 
ATOM     24  C   UNL     1       7.803   7.420 -10.508  0.00  0.00    +0.052 C 
ATOM     25  C   UNL     1       5.906   6.441 -11.698  0.00  0.00    +0.030 A 
ATOM     26  C   UNL     1       4.620   5.967 -11.669  0.00  0.00    +0.065 A 
ATOM     27  C   UNL     1       3.921   5.530 -12.911  0.00  0.00    +0.052 C 
ATOM     28  N   UNL     1       4.175   5.475 -10.487  0.00  0.00    -0.199 NA
ENDBRANCH  20  21
ENDBRANCH  16  20
ENDBRANCH   1  16
TORSDOF 7
ENDMDL
MODEL 5
REMARK VINA RESULT:      -7.6      3.254      6.546
REMARK  Name = 
REMARK  7 active torsions:
REMARK  status: ('A' for Active; 'I' for Inactive)
REMARK    1  A    between atoms: O_2  and  C_3
REMARK    2  A    between atoms: C_3  and  C_4
REMARK    3  A    between atoms: C_3  and  C_10
REMARK    4  A    between atoms: C_3  and  C_16
REMARK    5  A    between atoms: C_16  and  O_17
REMARK    6  A    between atoms: C_16  and  C_26
REMARK    7  A    between atoms: O_17  and  C_18
REMARK                            x       y       z     vdW  Elec       q    Type
REMARK                         _______ _______ _______ _____ _____    ______ ____
ROOT
ATOM      1  C   UNL     1       2.076   5.366  -5.849  0.00  0.00    +0.178 C 
ENDROOT
BRANCH   1   2
ATOM      2  C   UNL     1       2.863   5.731  -4.728  0.00  0.00    +0.010 A 
ATOM      3  C   UNL     1       2.817   7.049  -4.279  0.00  0.00    -0.002 A 
ATOM      4  C   UNL     1       3.695   7.570  -3.370  0.00  0.00    -0.000 A 
ATOM      5  C   UNL     1       4.861   6.871  -3.125  0.00  0.00    -0.000 A 
ATOM      6  C   UNL     1       4.797   5.499  -3.336  0.00  0.00    -0.000 A 
ATOM      7  C   UNL     1       3.697   4.928  -3.959  0.00  0.00    -0.002 A 
ENDBRANCH   1   2
BRANCH   1   8
ATOM      8  C   UNL     1       2.637   5.983  -7.096  0.00  0.00    +0.010 A 
ATOM      9  C   UNL     1       2.320   7.256  -7.488  0.00  0.00    -0.002 A 
ATOM     10  C   UNL     1       2.824   7.697  -8.691  0.00  0.00    -0.000 A 
ATOM     11  C   UNL     1       3.598   6.837  -9.451  0.00  0.00    -0.000 A 
ATOM     12  C   UNL     1       4.355   5.912  -8.770  0.00  0.00    -0.000 A 
ATOM     13  C   UNL     1       3.826   5.443  -7.572  0.00  0.00    -0.002 A 
ENDBRANCH   1   8
BRANCH   1  15
ATOM     14  C   UNL     1       2.312   3.436  -6.614  0.00  0.00    +0.175 C 
ATOM     15  O   UNL     1       1.886   4.064  -6.163  0.00  0.00    -0.344 OA
ENDBRANCH   1  15
BRANCH   1  16
ATOM     16  C   UNL     1       0.577   6.083  -5.780  0.00  0.00    +0.303 C 
BRANCH  16  17
ATOM     17  C   UNL     1      -0.028   5.248  -7.057  0.00  0.00    +0.407 C 
ATOM     18  O   UNL     1      -1.241   4.712  -6.586  0.00  0.00    -0.242 OA
ATOM     19  O   UNL     1      -0.241   5.952  -8.069  0.00  0.00    -0.242 OA
ENDBRANCH  16  17
BRANCH  16  20
ATOM     20  O   UNL     1      -0.005   5.040  -4.767  0.00  0.00    -0.435 OA
BRANCH  20  21
ATOM     21  C   UNL     1      -0.661   5.644  -3.691  0.00  0.00    +0.320 A 
ATOM     22  N   UNL     1      -1.973   5.451  -3.412  0.00  0.00    -0.199 NA
ATOM     23  C   UNL     1      -2.487   6.373  -2.557  0.00  0.00    +0.065 A 
ATOM     24  C   UNL     1      -3.959   6.629  -2.490  0.00  0.00    +0.052 C 
ATOM     25  C   UNL     1      -1.785   6.541  -1.377  0.00  0.00    +0.030 A 
ATOM     26  C   UNL     1      -0.422   6.443  -1.471  0.00  0.00    +0.065 A 
ATOM     27  C   UNL     1       0.454   6.545  -0.270  0.00  0.00    +0.052 C 
ATOM     28  N   UNL     1       0.073   5.805  -2.560  0.00  0.00    -0.199 NA
ENDBRANCH  20  21
ENDBRANCH  16  20
ENDBRANCH   1  16
TORSDOF 7
ENDMDL
MODEL 6
REMARK VINA RESULT:      -7.4      5.649      9.208
REMARK  Name = 
REMARK  7 active torsions:
REMARK  status: ('A' for Active; 'I' for Inactive)
REMARK    1  A    between atoms: O_2  and  C_3
REMARK    2  A    between atoms: C_3  and  C_4
REMARK    3  A    between atoms: C_3  and  C_10
REMARK    4  A    between atoms: C_3  and  C_16
REMARK    5  A    between atoms: C_16  and  O_17
REMARK    6  A    between atoms: C_16  and  C_26
REMARK    7  A    between atoms: O_17  and  C_18
REMARK                            x       y       z     vdW  Elec       q    Type
REMARK                         _______ _______ _______ _____ _____    ______ ____
ROOT
ATOM      1  C   UNL     1       2.997   6.120  -1.552  0.00  0.00    +0.178 C 
ENDROOT
BRANCH   1   2
ATOM      2  C   UNL     1       3.727   7.084  -0.813  0.00  0.00    +0.010 A 
ATOM      3  C   UNL     1       4.687   6.644   0.097  0.00  0.00    -0.002 A 
ATOM      4  C   UNL     1       5.280   7.456   1.023  0.00  0.00    -0.000 A 
ATOM      5  C   UNL     1       4.685   8.674   1.288  0.00  0.00    -0.000 A 
ATOM      6  C   UNL     1       3.938   9.218   0.251  0.00  0.00    -0.000 A 
ATOM      7  C   UNL     1       3.643   8.470  -0.879  0.00  0.00    -0.002 A 
ENDBRANCH   1   2
BRANCH   1   8
ATOM      8  C   UNL     1       3.408   6.154  -2.994  0.00  0.00    +0.010 A 
ATOM      9  C   UNL     1       3.238   7.265  -3.776  0.00  0.00    -0.002 A 
ATOM     10  C   UNL     1       3.573   7.165  -5.108  0.00  0.00    -0.000 A 
ATOM     11  C   UNL     1       4.039   5.955  -5.594  0.00  0.00    -0.000 A 
ATOM     12  C   UNL     1       4.747   5.162  -4.720  0.00  0.00    -0.000 A 
ATOM     13  C   UNL     1       4.382   5.241  -3.380  0.00  0.00    -0.002 A 
ENDBRANCH   1   8
BRANCH   1  15
ATOM     14  C   UNL     1       3.660   4.215  -1.009  0.00  0.00    +0.175 C 
ATOM     15  O   UNL     1       3.042   4.811  -1.210  0.00  0.00    -0.344 OA
ENDBRANCH   1  15
BRANCH   1  16
ATOM     16  C   UNL     1       1.393   6.547  -1.663  0.00  0.00    +0.303 C 
BRANCH  16  17
ATOM     17  C   UNL     1       0.937   5.154  -2.401  0.00  0.00    +0.407 C 
ATOM     18  O   UNL     1       0.004   4.577  -1.520  0.00  0.00    -0.242 OA
ATOM     19  O   UNL     1       0.410   5.324  -3.524  0.00  0.00    -0.242 OA
ENDBRANCH  16  17
BRANCH  16  20
ATOM     20  O   UNL     1       1.022   5.973  -0.255  0.00  0.00    -0.435 OA
BRANCH  20  21
ATOM     21  C   UNL     1       0.587   6.963   0.631  0.00  0.00    +0.320 A 
ATOM     22  N   UNL     1      -0.718   7.182   0.926  0.00  0.00    -0.199 NA
ATOM     23  C   UNL     1      -0.945   8.381   1.524  0.00  0.00    +0.065 A 
ATOM     24  C   UNL     1      -2.302   9.010   1.502  0.00  0.00    +0.052 C 
ATOM     25  C   UNL     1      -0.170   8.642   2.639  0.00  0.00    +0.030 A 
ATOM     26  C   UNL     1       1.120   8.182   2.595  0.00  0.00    +0.065 A 
ATOM     27  C   UNL     1       2.047   8.343   3.750  0.00  0.00    +0.052 C 
ATOM     28  N   UNL     1       1.389   7.198   1.702  0.00  0.00    -0.199 NA
ENDBRANCH  20  21
ENDBRANCH  16  20
ENDBRANCH   1  16
TORSDOF 7
ENDMDL
MODEL 7
REMARK VINA RESULT:      -7.3      2.481      6.872
REMARK  Name = 
REMARK  7 active torsions:
REMARK  status: ('A' for Active; 'I' for Inactive)
REMARK    1  A    between atoms: O_2  and  C_3
REMARK    2  A    between atoms: C_3  and  C_4
REMARK    3  A    between atoms: C_3  and  C_10
REMARK    4  A    between atoms: C_3  and  C_16
REMARK    5  A    between atoms: C_16  and  O_17
REMARK    6  A    between atoms: C_16  and  C_26
REMARK    7  A    between atoms: O_17  and  C_18
REMARK                            x       y       z     vdW  Elec       q    Type
REMARK                         _______ _______ _______ _____ _____    ______ ____
ROOT
ATOM      1  C   UNL     1       2.545   5.216  -8.417  0.00  0.00    +0.178 C 
ENDROOT
BRANCH   1   2
ATOM      2  C   UNL     1       3.802   5.743  -8.806  0.00  0.00    +0.010 A 
ATOM      3  C   UNL     1       3.850   6.642  -9.871  0.00  0.00    -0.002 A 
ATOM      4  C   UNL     1       5.009   7.030 -10.481  0.00  0.00    -0.000 A 
ATOM      5  C   UNL     1       6.142   6.271 -10.257  0.00  0.00    -0.000 A 
ATOM      6  C   UNL     1       6.179   5.585  -9.050  0.00  0.00    -0.000 A 
ATOM      7  C   UNL     1       5.051   5.505  -8.246  0.00  0.00    -0.002 A 
ENDBRANCH   1   2
BRANCH   1   8
ATOM      8  C   UNL     1       1.496   5.588  -9.422  0.00  0.00    +0.010 A 
ATOM      9  C   UNL     1       1.235   6.889  -9.759  0.00  0.00    -0.002 A 
ATOM     10  C   UNL     1       0.196   7.127 -10.630  0.00  0.00    -0.000 A 
ATOM     11  C   UNL     1      -0.544   6.056 -11.101  0.00  0.00    -0.000 A 
ATOM     12  C   UNL     1       0.115   4.856 -11.242  0.00  0.00    -0.000 A 
ATOM     13  C   UNL     1       1.142   4.605 -10.338  0.00  0.00    -0.002 A 
ENDBRANCH   1   8
BRANCH   1  15
ATOM     14  C   UNL     1       2.743   3.140  -8.529  0.00  0.00    +0.175 C 
ATOM     15  O   UNL     1       2.385   3.886  -8.225  0.00  0.00    -0.344 OA
ENDBRANCH   1  15
BRANCH   1  16
ATOM     16  C   UNL     1       1.976   5.984  -7.056  0.00  0.00    +0.303 C 
BRANCH  16  17
ATOM     17  C   UNL     1       0.480   5.315  -7.143  0.00  0.00    +0.407 C 
ATOM     18  O   UNL     1       0.482   4.316  -6.152  0.00  0.00    -0.242 OA
ATOM     19  O   UNL     1      -0.451   6.123  -6.926  0.00  0.00    -0.242 OA
ENDBRANCH  16  17
BRANCH  16  20
ATOM     20  O   UNL     1       2.467   4.866  -6.076  0.00  0.00    -0.435 OA
BRANCH  20  21
ATOM     21  C   UNL     1       3.191   5.377  -4.996  0.00  0.00    +0.320 A 
ATOM     22  N   UNL     1       3.864   6.553  -5.037  0.00  0.00    -0.199 NA
ATOM     23  C   UNL     1       4.764   6.698  -4.029  0.00  0.00    +0.065 A 
ATOM     24  C   UNL     1       5.906   7.657  -4.144  0.00  0.00    +0.052 C 
ATOM     25  C   UNL     1       4.262   6.499  -2.756  0.00  0.00    +0.030 A 
ATOM     26  C   UNL     1       3.312   5.519  -2.632  0.00  0.00    +0.065 A 
ATOM     27  C   UNL     1       2.645   5.237  -1.329  0.00  0.00    +0.052 C 
ATOM     28  N   UNL     1       2.670   5.142  -3.764  0.00  0.00    -0.199 NA
ENDBRANCH  20  21
ENDBRANCH  16  20
ENDBRANCH   1  16
TORSDOF 7
ENDMDL
MODEL 8
REMARK VINA RESULT:      -7.3      3.229      6.691
REMARK  Name = 
REMARK  7 active torsions:
REMARK  status: ('A' for Active; 'I' for Inactive)
REMARK    1  A    between atoms: O_2  and  C_3
REMARK    2  A    between atoms: C_3  and  C_4
REMARK    3  A    between atoms: C_3  and  C_10
REMARK    4  A    between atoms: C_3  and  C_16
REMARK    5  A    between atoms: C_16  and  O_17
REMARK    6  A    between atoms: C_16  and  C_26
REMARK    7  A    between atoms: O_17  and  C_18
REMARK                            x       y       z     vdW  Elec       q    Type
REMARK                         _______ _______ _______ _____ _____    ______ ____
ROOT
ATOM      1  C   UNL     1       2.337   5.403  -5.698  0.00  0.00    +0.178 C 
ENDROOT
BRANCH   1   2
ATOM      2  C   UNL     1       3.186   5.833  -4.648  0.00  0.00    +0.010 A 
ATOM      3  C   UNL     1       3.705   4.878  -3.775  0.00  0.00    -0.002 A 
ATOM      4  C   UNL     1       4.334   5.189  -2.602  0.00  0.00    -0.000 A 
ATOM      5  C   UNL     1       4.172   6.466  -2.100  0.00  0.00    -0.000 A 
ATOM      6  C   UNL     1       3.910   7.454  -3.041  0.00  0.00    -0.000 A 
ATOM      7  C   UNL     1       3.617   7.121  -4.356  0.00  0.00    -0.002 A 
ENDBRANCH   1   2
BRANCH   1   8
ATOM      8  C   UNL     1       2.779   6.006  -6.999  0.00  0.00    +0.010 A 
ATOM      9  C   UNL     1       2.414   7.268  -7.382  0.00  0.00    -0.002 A 
ATOM     10  C   UNL     1       2.806   7.695  -8.630  0.00  0.00    -0.000 A 
ATOM     11  C   UNL     1       3.523   6.831  -9.441  0.00  0.00    -0.000 A 
ATOM     12  C   UNL     1       4.347   5.925  -8.813  0.00  0.00    -0.000 A 
ATOM     13  C   UNL     1       3.930   5.471  -7.567  0.00  0.00    -0.002 A 
ENDBRANCH   1   8
BRANCH   1  15
ATOM     14  C   UNL     1       2.381   3.527  -6.615  0.00  0.00    +0.175 C 
ATOM     15  O   UNL     1       2.180   4.086  -5.963  0.00  0.00    -0.344 OA
ENDBRANCH   1  15
BRANCH   1  16
ATOM     16  C   UNL     1       0.817   6.060  -5.539  0.00  0.00    +0.303 C 
BRANCH  16  17
ATOM     17  C   UNL     1       0.194   5.267  -6.834  0.00  0.00    +0.407 C 
ATOM     18  O   UNL     1      -0.915   4.570  -6.321  0.00  0.00    -0.242 OA
ATOM     19  O   UNL     1      -0.172   6.021  -7.763  0.00  0.00    -0.242 OA
ENDBRANCH  16  17
BRANCH  16  20
ATOM     20  O   UNL     1       0.311   4.948  -4.560  0.00  0.00    -0.435 OA
BRANCH  20  21
ATOM     21  C   UNL     1      -0.188   5.472  -3.364  0.00  0.00    +0.320 A 
ATOM     22  N   UNL     1       0.535   6.269  -2.539  0.00  0.00    -0.199 NA
ATOM     23  C   UNL     1       0.003   6.385  -1.294  0.00  0.00    +0.065 A 
ATOM     24  C   UNL     1       0.844   6.804  -0.130  0.00  0.00    +0.052 C 
ATOM     25  C   UNL     1      -1.327   6.761  -1.251  0.00  0.00    +0.030 A 
ATOM     26  C   UNL     1      -2.125   6.258  -2.246  0.00  0.00    +0.065 A 
ATOM     27  C   UNL     1      -3.565   6.628  -2.355  0.00  0.00    +0.052 C 
ATOM     28  N   UNL     1      -1.502   5.810  -3.363  0.00  0.00    -0.199 NA
ENDBRANCH  20  21
ENDBRANCH  16  20
ENDBRANCH   1  16
TORSDOF 7
ENDMDL
MODEL 9
REMARK VINA RESULT:      -7.2      3.110      6.488
REMARK  Name = 
REMARK  7 active torsions:
REMARK  status: ('A' for Active; 'I' for Inactive)
REMARK    1  A    between atoms: O_2  and  C_3
REMARK    2  A    between atoms: C_3  and  C_4
REMARK    3  A    between atoms: C_3  and  C_10
REMARK    4  A    between atoms: C_3  and  C_16
REMARK    5  A    between atoms: C_16  and  O_17
REMARK    6  A    between atoms: C_16  and  C_26
REMARK    7  A    between atoms: O_17  and  C_18
REMARK                            x       y       z     vdW  Elec       q    Type
REMARK                         _______ _______ _______ _____ _____    ______ ____
ROOT
ATOM      1  C   UNL     1       1.365   6.605  -6.509  0.00  0.00    +0.178 C 
ENDROOT
BRANCH   1   2
ATOM      2  C   UNL     1       0.076   6.591  -5.919  0.00  0.00    +0.010 A 
ATOM      3  C   UNL     1      -0.676   5.419  -5.981  0.00  0.00    -0.002 A 
ATOM      4  C   UNL     1      -2.003   5.354  -5.662  0.00  0.00    -0.000 A 
ATOM      5  C   UNL     1      -2.708   6.540  -5.586  0.00  0.00    -0.000 A 
ATOM      6  C   UNL     1      -1.960   7.664  -5.260  0.00  0.00    -0.000 A 
ATOM      7  C   UNL     1      -0.574   7.612  -5.237  0.00  0.00    -0.002 A 
ENDBRANCH   1   2
BRANCH   1   8
ATOM      8  C   UNL     1       1.397   5.694  -7.700  0.00  0.00    +0.010 A 
ATOM      9  C   UNL     1       2.073   4.504  -7.692  0.00  0.00    -0.002 A 
ATOM     10  C   UNL     1       2.109   3.782  -8.864  0.00  0.00    -0.000 A 
ATOM     11  C   UNL     1       1.486   4.297  -9.989  0.00  0.00    -0.000 A 
ATOM     12  C   UNL     1       0.375   5.082  -9.783  0.00  0.00    -0.000 A 
ATOM     13  C   UNL     1       0.359   5.836  -8.614  0.00  0.00    -0.002 A 
ENDBRANCH   1   8
BRANCH   1  15
ATOM     14  C   UNL     1       2.047   8.166  -7.718  0.00  0.00    +0.175 C 
ATOM     15  O   UNL     1       1.911   7.763  -6.944  0.00  0.00    -0.344 OA
ENDBRANCH   1  15
BRANCH   1  16
ATOM     16  C   UNL     1       2.480   5.875  -5.514  0.00  0.00    +0.303 C 
BRANCH  16  17
ATOM     17  C   UNL     1       3.766   6.666  -6.155  0.00  0.00    +0.407 C 
ATOM     18  O   UNL     1       4.191   7.536  -5.134  0.00  0.00    -0.242 OA
ATOM     19  O   UNL     1       4.710   5.914  -6.490  0.00  0.00    -0.242 OA
ENDBRANCH  16  17
BRANCH  16  20
ATOM     20  O   UNL     1       2.337   6.941  -4.376  0.00  0.00    -0.435 OA
BRANCH  20  21
ATOM     21  C   UNL     1       2.071   6.365  -3.130  0.00  0.00    +0.320 A 
ATOM     22  N   UNL     1       0.832   5.988  -2.731  0.00  0.00    -0.199 NA
ATOM     23  C   UNL     1       0.735   5.776  -1.392  0.00  0.00    +0.065 A 
ATOM     24  C   UNL     1      -0.589   5.820  -0.697  0.00  0.00    +0.052 C 
ATOM     25  C   UNL     1       1.674   4.913  -0.860  0.00  0.00    +0.030 A 
ATOM     26  C   UNL     1       2.928   4.976  -1.410  0.00  0.00    +0.065 A 
ATOM     27  C   UNL     1       4.021   4.062  -0.973  0.00  0.00    +0.052 C 
ATOM     28  N   UNL     1       3.029   5.539  -2.639  0.00  0.00    -0.199 NA
ENDBRANCH  20  21
ENDBRANCH  16  20
ENDBRANCH   1  16
TORSDOF 7
ENDMDL
