MODEL 1
REMARK VINA RESULT:      -7.6      0.000      0.000
REMARK  Name = 
REMARK  10 active torsions:
REMARK  status: ('A' for Active; 'I' for Inactive)
REMARK    1  A    between atoms: C_2  and  C_3
REMARK    2  A    between atoms: C_3  and  C_4
REMARK    3  A    between atoms: C_4  and  C_5
REMARK    4  A    between atoms: C_5  and  C_6
REMARK    5  A    between atoms: C_6  and  C_8
REMARK    6  A    between atoms: C_9  and  C_10
REMARK    7  A    between atoms: C_17  and  C_18
REMARK    8  A    between atoms: C_18  and  C_19
REMARK    9  A    between atoms: C_19  and  C_20
REMARK   10  A    between atoms: C_20  and  C_21
REMARK                            x       y       z     vdW  Elec       q    Type
REMARK                         _______ _______ _______ _____ _____    ______ ____
ROOT
ATOM      1  C   UNL     1       1.299   4.874  -5.635  0.00  0.00    +0.056 C 
ATOM      2  C   UNL     1       2.882   5.083  -6.046  0.00  0.00    +0.054 C 
ATOM      3  C   UNL     1       2.956   6.714  -6.458  0.00  0.00    +0.169 C 
ATOM      4  O   UNL     1       3.182   6.465  -7.974  0.00  0.00    -0.484 OA
ATOM      5  C   UNL     1       4.099   5.417  -7.840  0.00  0.00    +0.112 C 
ATOM      6  C   UNL     1       5.222   5.132  -8.396  0.00  0.00    +0.006 C 
ATOM      7  C   UNL     1       1.447   7.147  -6.565  0.00  0.00    +0.077 C 
ATOM      8  C   UNL     1       2.972   4.467  -7.530  0.00  0.00    +0.068 C 
ATOM      9  C   UNL     1       0.479   5.901  -6.694  0.00  0.00    +0.160 C 
ATOM     10  O   UNL     1       1.029   5.377  -8.005  0.00  0.00    -0.223 OA
ENDROOT
BRANCH   1  12
ATOM     11  C   UNL     1       1.386   5.782  -3.231  0.00  0.00    +0.002 C 
ATOM     12  C   UNL     1       1.428   5.917  -4.434  0.00  0.00    -0.026 C 
BRANCH  11  13
ATOM     13  C   UNL     1       0.380   5.045  -2.207  0.00  0.00    +0.174 C 
ATOM     14  O   UNL     1       1.173   5.556  -1.009  0.00  0.00    -0.218 OA
BRANCH  13  15
ATOM     15  C   UNL     1      -0.644   6.336  -2.117  0.00  0.00    +0.037 C 
BRANCH  15  16
ATOM     16  C   UNL     1      -1.851   5.544  -2.600  0.00  0.00    +0.003 C 
BRANCH  16  17
ATOM     17  C   UNL     1      -2.838   6.650  -2.967  0.00  0.00    +0.000 C 
BRANCH  17  19
ATOM     18  C   UNL     1      -2.567   7.432  -5.200  0.00  0.00    +0.000 C 
ATOM     19  C   UNL     1      -1.975   7.569  -3.830  0.00  0.00    +0.000 C 
ENDBRANCH  17  19
ENDBRANCH  16  17
ENDBRANCH  15  16
ENDBRANCH  13  15
ENDBRANCH  11  13
ENDBRANCH   1  12
BRANCH   6  20
ATOM     20  C   UNL     1       5.665   5.921  -9.578  0.00  0.00    +0.029 C 
BRANCH  20  21
ATOM     21  C   UNL     1       7.145   5.666  -9.706  0.00  0.00    +0.017 C 
BRANCH  21  22
ATOM     22  C   UNL     1       7.651   6.534 -10.849  0.00  0.00    +0.114 C 
BRANCH  22  23
ATOM     23  C   UNL     1       8.297   5.634 -11.831  0.00  0.00    +0.365 C 
ATOM     24  O   UNL     1       7.684   4.578 -12.387  0.00  0.00    -0.246 OA
ATOM     25  O   UNL     1       9.457   5.924 -12.218  0.00  0.00    -0.246 OA
ENDBRANCH  22  23
ENDBRANCH  21  22
ENDBRANCH  20  21
ENDBRANCH   6  20
TORSDOF 10
ENDMDL
MODEL 2
REMARK VINA RESULT:      -7.5      1.808      2.829
REMARK  Name = 
REMARK  10 active torsions:
REMARK  status: ('A' for Active; 'I' for Inactive)
REMARK    1  A    between atoms: C_2  and  C_3
REMARK    2  A    between atoms: C_3  and  C_4
REMARK    3  A    between atoms: C_4  and  C_5
REMARK    4  A    between atoms: C_5  and  C_6
REMARK    5  A    between atoms: C_6  and  C_8
REMARK    6  A    between atoms: C_9  and  C_10
REMARK    7  A    between atoms: C_17  and  C_18
REMARK    8  A    between atoms: C_18  and  C_19
REMARK    9  A    between atoms: C_19  and  C_20
REMARK   10  A    between atoms: C_20  and  C_21
REMARK                            x       y       z     vdW  Elec       q    Type
REMARK                         _______ _______ _______ _____ _____    ______ ____
ROOT
ATOM      1  C   UNL     1       1.048   6.942  -7.147  0.00  0.00    +0.056 C 
ATOM      2  C   UNL     1       2.001   6.211  -8.277  0.00  0.00    +0.054 C 
ATOM      3  C   UNL     1       2.708   4.947  -7.419  0.00  0.00    +0.169 C 
ATOM      4  O   UNL     1       4.137   5.555  -7.428  0.00  0.00    -0.484 OA
ATOM      5  C   UNL     1       4.129   5.989  -8.757  0.00  0.00    +0.112 C 
ATOM      6  C   UNL     1       4.969   5.921  -9.728  0.00  0.00    +0.006 C 
ATOM      7  C   UNL     1       2.377   5.277  -5.916  0.00  0.00    +0.077 C 
ATOM      8  C   UNL     1       3.286   7.175  -8.368  0.00  0.00    +0.068 C 
ATOM      9  C   UNL     1       1.938   6.786  -5.722  0.00  0.00    +0.160 C 
ATOM     10  O   UNL     1       3.237   7.415  -6.185  0.00  0.00    -0.223 OA
ENDROOT
BRANCH   1  12
ATOM     11  C   UNL     1      -1.017   5.416  -7.011  0.00  0.00    +0.002 C 
ATOM     12  C   UNL     1       0.176   5.618  -6.963  0.00  0.00    -0.026 C 
BRANCH  11  13
ATOM     13  C   UNL     1      -2.313   6.111  -6.346  0.00  0.00    +0.174 C 
ATOM     14  O   UNL     1      -2.912   4.748  -6.013  0.00  0.00    -0.218 OA
BRANCH  13  15
ATOM     15  C   UNL     1      -1.625   6.207  -4.849  0.00  0.00    +0.037 C 
BRANCH  15  16
ATOM     16  C   UNL     1      -2.376   7.475  -4.470  0.00  0.00    +0.003 C 
BRANCH  16  17
ATOM     17  C   UNL     1      -2.140   7.554  -2.964  0.00  0.00    +0.000 C 
BRANCH  17  19
ATOM     18  C   UNL     1      -2.308   5.721  -1.451  0.00  0.00    +0.000 C 
ATOM     19  C   UNL     1      -3.120   6.507  -2.436  0.00  0.00    +0.000 C 
ENDBRANCH  17  19
ENDBRANCH  16  17
ENDBRANCH  15  16
ENDBRANCH  13  15
ENDBRANCH  11  13
ENDBRANCH   1  12
BRANCH   6  20
ATOM     20  C   UNL     1       6.356   5.454  -9.453  0.00  0.00    +0.029 C 
BRANCH  20  21
ATOM     21  C   UNL     1       7.262   6.465 -10.108  0.00  0.00    +0.017 C 
BRANCH  21  22
ATOM     22  C   UNL     1       6.980   6.418 -11.603  0.00  0.00    +0.114 C 
BRANCH  22  23
ATOM     23  C   UNL     1       8.048   5.602 -12.226  0.00  0.00    +0.365 C 
ATOM     24  O   UNL     1       9.357   5.868 -12.098  0.00  0.00    -0.246 OA
ATOM     25  O   UNL     1       7.706   4.562 -12.843  0.00  0.00    -0.246 OA
ENDBRANCH  22  23
ENDBRANCH  21  22
ENDBRANCH  20  21
ENDBRANCH   6  20
TORSDOF 10
ENDMDL
MODEL 3
REMARK VINA RESULT:      -7.4      2.174      9.450
REMARK  Name = 
REMARK  10 active torsions:
REMARK  status: ('A' for Active; 'I' for Inactive)
REMARK    1  A    between atoms: C_2  and  C_3
REMARK    2  A    between atoms: C_3  and  C_4
REMARK    3  A    between atoms: C_4  and  C_5
REMARK    4  A    between atoms: C_5  and  C_6
REMARK    5  A    between atoms: C_6  and  C_8
REMARK    6  A    between atoms: C_9  and  C_10
REMARK    7  A    between atoms: C_17  and  C_18
REMARK    8  A    between atoms: C_18  and  C_19
REMARK    9  A    between atoms: C_19  and  C_20
REMARK   10  A    between atoms: C_20  and  C_21
REMARK                            x       y       z     vdW  Elec       q    Type
REMARK                         _______ _______ _______ _____ _____    ______ ____
ROOT
ATOM      1  C   UNL     1       2.859   4.929  -7.242  0.00  0.00    +0.056 C 
ATOM      2  C   UNL     1       1.319   5.499  -7.400  0.00  0.00    +0.054 C 
ATOM      3  C   UNL     1       1.397   7.015  -6.672  0.00  0.00    +0.169 C 
ATOM      4  O   UNL     1       0.525   6.627  -5.448  0.00  0.00    -0.484 OA
ATOM      5  C   UNL     1      -0.438   5.895  -6.150  0.00  0.00    +0.112 C 
ATOM      6  C   UNL     1      -1.723   5.850  -6.126  0.00  0.00    +0.006 C 
ATOM      7  C   UNL     1       2.781   7.005  -5.923  0.00  0.00    +0.077 C 
ATOM      8  C   UNL     1       0.510   4.729  -6.241  0.00  0.00    +0.068 C 
ATOM      9  C   UNL     1       3.351   5.538  -5.747  0.00  0.00    +0.160 C 
ATOM     10  O   UNL     1       2.220   5.005  -4.890  0.00  0.00    -0.223 OA
ENDROOT
BRANCH   1  12
ATOM     11  C   UNL     1       3.609   6.246  -9.318  0.00  0.00    +0.002 C 
ATOM     12  C   UNL     1       3.439   6.125  -8.125  0.00  0.00    -0.026 C 
BRANCH  11  13
ATOM     13  C   UNL     1       4.301   5.343 -10.463  0.00  0.00    +0.174 C 
ATOM     14  O   UNL     1       4.278   6.511 -11.443  0.00  0.00    -0.218 OA
BRANCH  13  15
ATOM     15  C   UNL     1       5.834   5.729  -9.991  0.00  0.00    +0.037 C 
BRANCH  15  16
ATOM     16  C   UNL     1       5.895   6.984 -10.850  0.00  0.00    +0.003 C 
BRANCH  16  17
ATOM     17  C   UNL     1       7.392   7.281 -10.884  0.00  0.00    +0.000 C 
BRANCH  17  19
ATOM     18  C   UNL     1       8.726   5.886 -12.280  0.00  0.00    +0.000 C 
ATOM     19  C   UNL     1       7.989   5.878 -10.974  0.00  0.00    +0.000 C 
ENDBRANCH  17  19
ENDBRANCH  16  17
ENDBRANCH  15  16
ENDBRANCH  13  15
ENDBRANCH  11  13
ENDBRANCH   1  12
BRANCH   6  20
ATOM     20  C   UNL     1      -2.452   6.556  -5.037  0.00  0.00    +0.029 C 
BRANCH  20  21
ATOM     21  C   UNL     1      -2.793   5.496  -4.022  0.00  0.00    +0.017 C 
BRANCH  21  22
ATOM     22  C   UNL     1      -3.418   6.203  -2.828  0.00  0.00    +0.114 C 
BRANCH  22  23
ATOM     23  C   UNL     1      -2.426   6.167  -1.729  0.00  0.00    +0.365 C 
ATOM     24  O   UNL     1      -2.336   7.109  -0.778  0.00  0.00    -0.246 OA
ATOM     25  O   UNL     1      -1.682   5.157  -1.644  0.00  0.00    -0.246 OA
ENDBRANCH  22  23
ENDBRANCH  21  22
ENDBRANCH  20  21
ENDBRANCH   6  20
TORSDOF 10
ENDMDL
MODEL 4
REMARK VINA RESULT:      -7.2      1.670      2.328
REMARK  Name = 
REMARK  10 active torsions:
REMARK  status: ('A' for Active; 'I' for Inactive)
REMARK    1  A    between atoms: C_2  and  C_3
REMARK    2  A    between atoms: C_3  and  C_4
REMARK    3  A    between atoms: C_4  and  C_5
REMARK    4  A    between atoms: C_5  and  C_6
REMARK    5  A    between atoms: C_6  and  C_8
REMARK    6  A    between atoms: C_9  and  C_10
REMARK    7  A    between atoms: C_17  and  C_18
REMARK    8  A    between atoms: C_18  and  C_19
REMARK    9  A    between atoms: C_19  and  C_20
REMARK   10  A    between atoms: C_20  and  C_21
REMARK                            x       y       z     vdW  Elec       q    Type
REMARK                         _______ _______ _______ _____ _____    ______ ____
ROOT
ATOM      1  C   UNL     1       2.324   4.792  -7.525  0.00  0.00    +0.056 C 
ATOM      2  C   UNL     1       3.855   5.395  -7.623  0.00  0.00    +0.054 C 
ATOM      3  C   UNL     1       3.634   6.875  -8.395  0.00  0.00    +0.169 C 
ATOM      4  O   UNL     1       4.323   6.446  -9.719  0.00  0.00    -0.484 OA
ATOM      5  C   UNL     1       5.397   5.764  -9.138  0.00  0.00    +0.112 C 
ATOM      6  C   UNL     1       6.665   5.740  -9.351  0.00  0.00    +0.006 C 
ATOM      7  C   UNL     1       2.154   6.807  -8.927  0.00  0.00    +0.077 C 
ATOM      8  C   UNL     1       4.501   4.587  -8.856  0.00  0.00    +0.068 C 
ATOM      9  C   UNL     1       1.600   5.324  -8.954  0.00  0.00    +0.160 C 
ATOM     10  O   UNL     1       2.603   4.772  -9.947  0.00  0.00    -0.223 OA
ENDROOT
BRANCH   1  12
ATOM     11  C   UNL     1       1.739   6.144  -5.417  0.00  0.00    +0.002 C 
ATOM     12  C   UNL     1       1.853   6.017  -6.616  0.00  0.00    -0.026 C 
BRANCH  11  13
ATOM     13  C   UNL     1       1.041   5.280  -4.247  0.00  0.00    +0.174 C 
ATOM     14  O   UNL     1       2.048   5.792  -3.223  0.00  0.00    -0.218 OA
BRANCH  13  15
ATOM     15  C   UNL     1      -0.021   6.478  -3.848  0.00  0.00    +0.037 C 
BRANCH  15  16
ATOM     16  C   UNL     1      -1.234   5.717  -4.361  0.00  0.00    +0.003 C 
BRANCH  16  17
ATOM     17  C   UNL     1      -1.939   6.769  -5.215  0.00  0.00    +0.000 C 
BRANCH  17  19
ATOM     18  C   UNL     1      -1.535   5.215  -6.974  0.00  0.00    +0.000 C 
ATOM     19  C   UNL     1      -2.654   5.905  -6.252  0.00  0.00    +0.000 C 
ENDBRANCH  17  19
ENDBRANCH  16  17
ENDBRANCH  15  16
ENDBRANCH  13  15
ENDBRANCH  11  13
ENDBRANCH   1  12
BRANCH   6  20
ATOM     20  C   UNL     1       7.207   6.408 -10.566  0.00  0.00    +0.029 C 
BRANCH  20  21
ATOM     21  C   UNL     1       7.919   5.329 -11.341  0.00  0.00    +0.017 C 
BRANCH  21  22
ATOM     22  C   UNL     1       8.405   5.956 -12.639  0.00  0.00    +0.114 C 
BRANCH  22  23
ATOM     23  C   UNL     1       7.272   5.927 -13.592  0.00  0.00    +0.365 C 
ATOM     24  O   UNL     1       6.983   6.931 -14.434  0.00  0.00    -0.246 OA
ATOM     25  O   UNL     1       6.594   4.872 -13.664  0.00  0.00    -0.246 OA
ENDBRANCH  22  23
ENDBRANCH  21  22
ENDBRANCH  20  21
ENDBRANCH   6  20
TORSDOF 10
ENDMDL
MODEL 5
REMARK VINA RESULT:      -7.1      1.725      2.619
REMARK  Name = 
REMARK  10 active torsions:
REMARK  status: ('A' for Active; 'I' for Inactive)
REMARK    1  A    between atoms: C_2  and  C_3
REMARK    2  A    between atoms: C_3  and  C_4
REMARK    3  A    between atoms: C_4  and  C_5
REMARK    4  A    between atoms: C_5  and  C_6
REMARK    5  A    between atoms: C_6  and  C_8
REMARK    6  A    between atoms: C_9  and  C_10
REMARK    7  A    between atoms: C_17  and  C_18
REMARK    8  A    between atoms: C_18  and  C_19
REMARK    9  A    between atoms: C_19  and  C_20
REMARK   10  A    between atoms: C_20  and  C_21
REMARK                            x       y       z     vdW  Elec       q    Type
REMARK                         _______ _______ _______ _____ _____    ______ ____
ROOT
ATOM      1  C   UNL     1       1.785   6.903  -4.922  0.00  0.00    +0.056 C 
ATOM      2  C   UNL     1       2.363   5.937  -6.127  0.00  0.00    +0.054 C 
ATOM      3  C   UNL     1       3.508   4.987  -5.338  0.00  0.00    +0.169 C 
ATOM      4  O   UNL     1       4.733   5.634  -6.039  0.00  0.00    -0.484 OA
ATOM      5  C   UNL     1       4.183   5.691  -7.324  0.00  0.00    +0.112 C 
ATOM      6  C   UNL     1       4.618   5.400  -8.499  0.00  0.00    +0.006 C 
ATOM      7  C   UNL     1       3.695   5.697  -3.946  0.00  0.00    +0.077 C 
ATOM      8  C   UNL     1       3.375   6.898  -6.928  0.00  0.00    +0.068 C 
ATOM      9  C   UNL     1       3.141   7.180  -3.957  0.00  0.00    +0.160 C 
ATOM     10  O   UNL     1       4.080   7.719  -5.017  0.00  0.00    -0.223 OA
ENDROOT
BRANCH   1  12
ATOM     11  C   UNL     1       0.124   5.298  -3.791  0.00  0.00    +0.002 C 
ATOM     12  C   UNL     1       1.241   5.640  -4.111  0.00  0.00    -0.026 C 
BRANCH  11  13
ATOM     13  C   UNL     1      -1.125   6.030  -3.079  0.00  0.00    +0.174 C 
ATOM     14  O   UNL     1      -0.928   7.275  -3.938  0.00  0.00    -0.218 OA
BRANCH  13  15
ATOM     15  C   UNL     1      -2.227   5.428  -4.150  0.00  0.00    +0.037 C 
BRANCH  15  16
ATOM     16  C   UNL     1      -2.084   6.597  -5.114  0.00  0.00    +0.003 C 
BRANCH  16  17
ATOM     17  C   UNL     1      -2.555   5.988  -6.433  0.00  0.00    +0.000 C 
BRANCH  17  19
ATOM     18  C   UNL     1      -0.649   5.577  -7.802  0.00  0.00    +0.000 C 
ATOM     19  C   UNL     1      -1.465   4.953  -6.708  0.00  0.00    +0.000 C 
ENDBRANCH  17  19
ENDBRANCH  16  17
ENDBRANCH  15  16
ENDBRANCH  13  15
ENDBRANCH  11  13
ENDBRANCH   1  12
BRANCH   6  20
ATOM     20  C   UNL     1       6.063   5.089  -8.679  0.00  0.00    +0.029 C 
BRANCH  20  21
ATOM     21  C   UNL     1       6.574   6.095  -9.679  0.00  0.00    +0.017 C 
BRANCH  21  22
ATOM     22  C   UNL     1       7.730   5.442 -10.421  0.00  0.00    +0.114 C 
BRANCH  22  23
ATOM     23  C   UNL     1       7.421   5.516 -11.868  0.00  0.00    +0.365 C 
ATOM     24  O   UNL     1       6.872   6.589 -12.457  0.00  0.00    -0.246 OA
ATOM     25  O   UNL     1       7.763   4.546 -12.590  0.00  0.00    -0.246 OA
ENDBRANCH  22  23
ENDBRANCH  21  22
ENDBRANCH  20  21
ENDBRANCH   6  20
TORSDOF 10
ENDMDL
MODEL 6
REMARK VINA RESULT:      -6.9      2.014      9.341
REMARK  Name = 
REMARK  10 active torsions:
REMARK  status: ('A' for Active; 'I' for Inactive)
REMARK    1  A    between atoms: C_2  and  C_3
REMARK    2  A    between atoms: C_3  and  C_4
REMARK    3  A    between atoms: C_4  and  C_5
REMARK    4  A    between atoms: C_5  and  C_6
REMARK    5  A    between atoms: C_6  and  C_8
REMARK    6  A    between atoms: C_9  and  C_10
REMARK    7  A    between atoms: C_17  and  C_18
REMARK    8  A    between atoms: C_18  and  C_19
REMARK    9  A    between atoms: C_19  and  C_20
REMARK   10  A    between atoms: C_20  and  C_21
REMARK                            x       y       z     vdW  Elec       q    Type
REMARK                         _______ _______ _______ _____ _____    ______ ____
ROOT
ATOM      1  C   UNL     1       3.604   6.291  -9.123  0.00  0.00    +0.056 C 
ATOM      2  C   UNL     1       3.325   6.255  -7.498  0.00  0.00    +0.054 C 
ATOM      3  C   UNL     1       2.853   4.661  -7.227  0.00  0.00    +0.169 C 
ATOM      4  O   UNL     1       1.375   5.007  -6.902  0.00  0.00    -0.484 OA
ATOM      5  C   UNL     1       1.633   6.129  -6.109  0.00  0.00    +0.112 C 
ATOM      6  C   UNL     1       1.190   6.548  -4.977  0.00  0.00    +0.006 C 
ATOM      7  C   UNL     1       2.596   4.091  -8.672  0.00  0.00    +0.077 C 
ATOM      8  C   UNL     1       1.881   6.950  -7.347  0.00  0.00    +0.068 C 
ATOM      9  C   UNL     1       2.434   5.244  -9.745  0.00  0.00    +0.160 C 
ATOM     10  O   UNL     1       1.200   5.884  -9.142  0.00  0.00    -0.223 OA
ENDROOT
BRANCH   1  12
ATOM     11  C   UNL     1       5.956   5.309  -8.787  0.00  0.00    +0.002 C 
ATOM     12  C   UNL     1       4.767   5.206  -8.992  0.00  0.00    -0.026 C 
BRANCH  11  13
ATOM     13  C   UNL     1       7.143   6.199  -9.422  0.00  0.00    +0.174 C 
ATOM     14  O   UNL     1       8.080   4.996  -9.438  0.00  0.00    -0.218 OA
BRANCH  13  15
ATOM     15  C   UNL     1       6.681   5.897 -10.977  0.00  0.00    +0.037 C 
BRANCH  15  16
ATOM     16  C   UNL     1       7.000   7.306 -11.456  0.00  0.00    +0.003 C 
BRANCH  16  17
ATOM     17  C   UNL     1       6.388   7.319 -12.854  0.00  0.00    +0.000 C 
BRANCH  17  19
ATOM     18  C   UNL     1       6.938   5.982 -14.747  0.00  0.00    +0.000 C 
ATOM     19  C   UNL     1       6.578   5.869 -13.296  0.00  0.00    +0.000 C 
ENDBRANCH  17  19
ENDBRANCH  16  17
ENDBRANCH  15  16
ENDBRANCH  13  15
ENDBRANCH  11  13
ENDBRANCH   1  12
BRANCH   6  20
ATOM     20  C   UNL     1       0.020   5.865  -4.361  0.00  0.00    +0.029 C 
BRANCH  20  21
ATOM     21  C   UNL     1      -1.132   6.828  -4.500  0.00  0.00    +0.017 C 
BRANCH  21  22
ATOM     22  C   UNL     1      -1.837   6.880  -3.152  0.00  0.00    +0.114 C 
BRANCH  22  23
ATOM     23  C   UNL     1      -2.572   5.604  -2.992  0.00  0.00    +0.365 C 
ATOM     24  O   UNL     1      -3.350   5.069  -3.945  0.00  0.00    -0.246 OA
ATOM     25  O   UNL     1      -2.392   4.954  -1.932  0.00  0.00    -0.246 OA
ENDBRANCH  22  23
ENDBRANCH  21  22
ENDBRANCH  20  21
ENDBRANCH   6  20
TORSDOF 10
ENDMDL
MODEL 7
REMARK VINA RESULT:      -6.8      1.856      2.929
REMARK  Name = 
REMARK  10 active torsions:
REMARK  status: ('A' for Active; 'I' for Inactive)
REMARK    1  A    between atoms: C_2  and  C_3
REMARK    2  A    between atoms: C_3  and  C_4
REMARK    3  A    between atoms: C_4  and  C_5
REMARK    4  A    between atoms: C_5  and  C_6
REMARK    5  A    between atoms: C_6  and  C_8
REMARK    6  A    between atoms: C_9  and  C_10
REMARK    7  A    between atoms: C_17  and  C_18
REMARK    8  A    between atoms: C_18  and  C_19
REMARK    9  A    between atoms: C_19  and  C_20
REMARK   10  A    between atoms: C_20  and  C_21
REMARK                            x       y       z     vdW  Elec       q    Type
REMARK                         _______ _______ _______ _____ _____    ______ ____
ROOT
ATOM      1  C   UNL     1       1.564   6.860  -4.394  0.00  0.00    +0.056 C 
ATOM      2  C   UNL     1       2.024   6.050  -5.755  0.00  0.00    +0.054 C 
ATOM      3  C   UNL     1       3.019   4.831  -5.155  0.00  0.00    +0.169 C 
ATOM      4  O   UNL     1       4.330   5.419  -5.743  0.00  0.00    -0.484 OA
ATOM      5  C   UNL     1       3.812   5.772  -6.994  0.00  0.00    +0.112 C 
ATOM      6  C   UNL     1       4.220   5.634  -8.205  0.00  0.00    +0.006 C 
ATOM      7  C   UNL     1       3.280   5.255  -3.662  0.00  0.00    +0.077 C 
ATOM      8  C   UNL     1       3.168   6.990  -6.385  0.00  0.00    +0.068 C 
ATOM      9  C   UNL     1       2.931   6.779  -3.408  0.00  0.00    +0.160 C 
ATOM     10  O   UNL     1       3.950   7.362  -4.367  0.00  0.00    -0.223 OA
ENDROOT
BRANCH   1  12
ATOM     11  C   UNL     1      -0.319   5.309  -3.581  0.00  0.00    +0.002 C 
ATOM     12  C   UNL     1       0.843   5.560  -3.812  0.00  0.00    -0.026 C 
BRANCH  11  13
ATOM     13  C   UNL     1      -1.509   6.066  -2.795  0.00  0.00    +0.174 C 
ATOM     14  O   UNL     1      -2.269   4.755  -2.619  0.00  0.00    -0.218 OA
BRANCH  13  15
ATOM     15  C   UNL     1      -0.793   5.884  -1.320  0.00  0.00    +0.037 C 
BRANCH  15  16
ATOM     16  C   UNL     1      -1.474   7.107  -0.723  0.00  0.00    +0.003 C 
BRANCH  16  17
ATOM     17  C   UNL     1      -0.355   7.727   0.110  0.00  0.00    +0.000 C 
BRANCH  17  19
ATOM     18  C   UNL     1       2.024   7.632   0.180  0.00  0.00    +0.000 C 
ATOM     19  C   UNL     1       0.829   6.825  -0.233  0.00  0.00    +0.000 C 
ENDBRANCH  17  19
ENDBRANCH  16  17
ENDBRANCH  15  16
ENDBRANCH  13  15
ENDBRANCH  11  13
ENDBRANCH   1  12
BRANCH   6  20
ATOM     20  C   UNL     1       5.612   5.168  -8.450  0.00  0.00    +0.029 C 
BRANCH  20  21
ATOM     21  C   UNL     1       6.023   5.785  -9.763  0.00  0.00    +0.017 C 
BRANCH  21  22
ATOM     22  C   UNL     1       7.533   5.633  -9.876  0.00  0.00    +0.114 C 
BRANCH  22  23
ATOM     23  C   UNL     1       7.860   5.566 -11.319  0.00  0.00    +0.365 C 
ATOM     24  O   UNL     1       7.317   4.677 -12.164  0.00  0.00    -0.246 OA
ATOM     25  O   UNL     1       8.631   6.442 -11.786  0.00  0.00    -0.246 OA
ENDBRANCH  22  23
ENDBRANCH  21  22
ENDBRANCH  20  21
ENDBRANCH   6  20
TORSDOF 10
ENDMDL
MODEL 8
REMARK VINA RESULT:      -6.7      2.017      3.317
REMARK  Name = 
REMARK  10 active torsions:
REMARK  status: ('A' for Active; 'I' for Inactive)
REMARK    1  A    between atoms: C_2  and  C_3
REMARK    2  A    between atoms: C_3  and  C_4
REMARK    3  A    between atoms: C_4  and  C_5
REMARK    4  A    between atoms: C_5  and  C_6
REMARK    5  A    between atoms: C_6  and  C_8
REMARK    6  A    between atoms: C_9  and  C_10
REMARK    7  A    between atoms: C_17  and  C_18
REMARK    8  A    between atoms: C_18  and  C_19
REMARK    9  A    between atoms: C_19  and  C_20
REMARK   10  A    between atoms: C_20  and  C_21
REMARK                            x       y       z     vdW  Elec       q    Type
REMARK                         _______ _______ _______ _____ _____    ______ ____
ROOT
ATOM      1  C   UNL     1       0.501   6.970  -5.110  0.00  0.00    +0.056 C 
ATOM      2  C   UNL     1       0.561   6.400  -6.656  0.00  0.00    +0.054 C 
ATOM      3  C   UNL     1       1.433   4.968  -6.501  0.00  0.00    +0.169 C 
ATOM      4  O   UNL     1       2.691   5.491  -7.245  0.00  0.00    -0.484 OA
ATOM      5  C   UNL     1       2.016   6.153  -8.277  0.00  0.00    +0.112 C 
ATOM      6  C   UNL     1       2.165   6.211  -9.552  0.00  0.00    +0.006 C 
ATOM      7  C   UNL     1       2.033   5.045  -5.048  0.00  0.00    +0.077 C 
ATOM      8  C   UNL     1       1.707   7.295  -7.345  0.00  0.00    +0.068 C 
ATOM      9  C   UNL     1       1.995   6.518  -4.467  0.00  0.00    +0.160 C 
ATOM     10  O   UNL     1       2.900   7.148  -5.506  0.00  0.00    -0.223 OA
ENDROOT
BRANCH   1  12
ATOM     11  C   UNL     1      -1.252   5.551  -3.876  0.00  0.00    +0.002 C 
ATOM     12  C   UNL     1      -0.305   5.683  -4.620  0.00  0.00    -0.026 C 
BRANCH  11  13
ATOM     13  C   UNL     1      -1.615   6.083  -2.396  0.00  0.00    +0.174 C 
ATOM     14  O   UNL     1      -2.532   4.889  -2.156  0.00  0.00    -0.218 OA
BRANCH  13  15
ATOM     15  C   UNL     1      -0.352   5.294  -1.686  0.00  0.00    +0.037 C 
BRANCH  15  16
ATOM     16  C   UNL     1       0.050   6.487  -0.831  0.00  0.00    +0.003 C 
BRANCH  16  17
ATOM     17  C   UNL     1       1.574   6.397  -0.844  0.00  0.00    +0.000 C 
BRANCH  17  19
ATOM     18  C   UNL     1       3.281   4.808  -1.330  0.00  0.00    +0.000 C 
ATOM     19  C   UNL     1       1.799   4.912  -1.129  0.00  0.00    +0.000 C 
ENDBRANCH  17  19
ENDBRANCH  16  17
ENDBRANCH  15  16
ENDBRANCH  13  15
ENDBRANCH  11  13
ENDBRANCH   1  12
BRANCH   6  20
ATOM     20  C   UNL     1       3.390   5.630 -10.166  0.00  0.00    +0.029 C 
BRANCH  20  21
ATOM     21  C   UNL     1       4.437   6.711 -10.086  0.00  0.00    +0.017 C 
BRANCH  21  22
ATOM     22  C   UNL     1       5.620   6.253 -10.926  0.00  0.00    +0.114 C 
BRANCH  22  23
ATOM     23  C   UNL     1       6.641   7.325 -10.870  0.00  0.00    +0.365 C 
ATOM     24  O   UNL     1       7.826   7.191 -10.256  0.00  0.00    -0.246 OA
ATOM     25  O   UNL     1       6.409   8.388 -11.498  0.00  0.00    -0.246 OA
ENDBRANCH  22  23
ENDBRANCH  21  22
ENDBRANCH  20  21
ENDBRANCH   6  20
TORSDOF 10
ENDMDL
MODEL 9
REMARK VINA RESULT:      -6.7      2.547      4.061
REMARK  Name = 
REMARK  10 active torsions:
REMARK  status: ('A' for Active; 'I' for Inactive)
REMARK    1  A    between atoms: C_2  and  C_3
REMARK    2  A    between atoms: C_3  and  C_4
REMARK    3  A    between atoms: C_4  and  C_5
REMARK    4  A    between atoms: C_5  and  C_6
REMARK    5  A    between atoms: C_6  and  C_8
REMARK    6  A    between atoms: C_9  and  C_10
REMARK    7  A    between atoms: C_17  and  C_18
REMARK    8  A    between atoms: C_18  and  C_19
REMARK    9  A    between atoms: C_19  and  C_20
REMARK   10  A    between atoms: C_20  and  C_21
REMARK                            x       y       z     vdW  Elec       q    Type
REMARK                         _______ _______ _______ _____ _____    ______ ____
ROOT
ATOM      1  C   UNL     1       3.053   5.230  -7.441  0.00  0.00    +0.056 C 
ATOM      2  C   UNL     1       4.358   6.024  -8.062  0.00  0.00    +0.054 C 
ATOM      3  C   UNL     1       3.905   6.313  -9.658  0.00  0.00    +0.169 C 
ATOM      4  O   UNL     1       4.927   5.320 -10.274  0.00  0.00    -0.484 OA
ATOM      5  C   UNL     1       6.010   5.661  -9.457  0.00  0.00    +0.112 C 
ATOM      6  C   UNL     1       7.255   5.901  -9.671  0.00  0.00    +0.006 C 
ATOM      7  C   UNL     1       2.630   5.413  -9.858  0.00  0.00    +0.077 C 
ATOM      8  C   UNL     1       5.422   4.848  -8.334  0.00  0.00    +0.068 C 
ATOM      9  C   UNL     1       2.506   4.300  -8.739  0.00  0.00    +0.160 C 
ATOM     10  O   UNL     1       3.793   3.569  -9.065  0.00  0.00    -0.223 OA
ENDROOT
BRANCH   1  12
ATOM     11  C   UNL     1       1.483   7.209  -6.960  0.00  0.00    +0.002 C 
ATOM     12  C   UNL     1       2.106   6.487  -7.707  0.00  0.00    -0.026 C 
BRANCH  11  13
ATOM     13  C   UNL     1       0.461   6.963  -5.736  0.00  0.00    +0.174 C 
ATOM     14  O   UNL     1      -0.270   5.879  -6.521  0.00  0.00    -0.218 OA
BRANCH  13  15
ATOM     15  C   UNL     1       1.426   5.834  -5.017  0.00  0.00    +0.037 C 
BRANCH  15  16
ATOM     16  C   UNL     1       2.007   6.818  -4.012  0.00  0.00    +0.003 C 
BRANCH  16  17
ATOM     17  C   UNL     1       3.449   6.332  -3.879  0.00  0.00    +0.000 C 
BRANCH  17  19
ATOM     18  C   UNL     1       5.618   7.300  -4.061  0.00  0.00    +0.000 C 
ATOM     19  C   UNL     1       4.221   7.443  -4.589  0.00  0.00    +0.000 C 
ENDBRANCH  17  19
ENDBRANCH  16  17
ENDBRANCH  15  16
ENDBRANCH  13  15
ENDBRANCH  11  13
ENDBRANCH   1  12
BRANCH   6  20
ATOM     20  C   UNL     1       7.825   5.616 -11.017  0.00  0.00    +0.029 C 
BRANCH  20  21
ATOM     21  C   UNL     1       7.387   6.760 -11.895  0.00  0.00    +0.017 C 
BRANCH  21  22
ATOM     22  C   UNL     1       7.519   6.294 -13.337  0.00  0.00    +0.114 C 
BRANCH  22  23
ATOM     23  C   UNL     1       6.175   6.386 -13.953  0.00  0.00    +0.365 C 
ATOM     24  O   UNL     1       5.886   7.190 -14.988  0.00  0.00    -0.246 OA
ATOM     25  O   UNL     1       5.282   5.612 -13.529  0.00  0.00    -0.246 OA
ENDBRANCH  22  23
ENDBRANCH  21  22
ENDBRANCH  20  21
ENDBRANCH   6  20
TORSDOF 10
ENDMDL
