MODEL 1
REMARK VINA RESULT:      -5.5      0.000      0.000
REMARK  Name = 
REMARK  3 active torsions:
REMARK  status: ('A' for Active; 'I' for Inactive)
REMARK    1  A    between atoms: N_2  and  C_3
REMARK    2  A    between atoms: C_3  and  C_5
REMARK    3  A    between atoms: C_5  and  C_6
REMARK                            x       y       z     vdW  Elec       q    Type
REMARK                         _______ _______ _______ _____ _____    ______ ____
ROOT
ATOM      1  C   UNL     1       6.017   6.394 -10.481  0.00  0.00    -0.021 A 
ATOM      2  C   UNL     1       4.820   7.055 -10.476  0.00  0.00    -0.004 A 
ATOM      3  C   UNL     1       3.784   6.446  -9.790  0.00  0.00    -0.000 A 
ATOM      4  C   UNL     1       4.089   5.697  -8.671  0.00  0.00    -0.000 A 
ATOM      5  C   UNL     1       5.392   5.370  -8.390  0.00  0.00    -0.000 A 
ATOM      6  C   UNL     1       6.324   5.613  -9.389  0.00  0.00    -0.004 A 
ENDROOT
BRANCH   1   7
ATOM      7  C   UNL     1       7.135   6.665 -11.405  0.00  0.00    +0.044 C 
BRANCH   7   8
ATOM      8  C   UNL     1       7.996   5.236 -11.443  0.00  0.00    +0.077 C 
ATOM      9  C   UNL     1       9.255   5.947 -12.281  0.00  0.00    +0.019 C 
BRANCH   8  11
ATOM     10  C   UNL     1       7.524   5.798 -13.670  0.00  0.00    +0.107 C 
ATOM     11  N   UNL     1       7.294   4.799 -12.814  0.00  0.00    -0.218 NA
ENDBRANCH   8  11
ENDBRANCH   7   8
ENDBRANCH   1   7
TORSDOF 3
ENDMDL
MODEL 2
REMARK VINA RESULT:      -5.4      2.586      4.715
REMARK  Name = 
REMARK  3 active torsions:
REMARK  status: ('A' for Active; 'I' for Inactive)
REMARK    1  A    between atoms: N_2  and  C_3
REMARK    2  A    between atoms: C_3  and  C_5
REMARK    3  A    between atoms: C_5  and  C_6
REMARK                            x       y       z     vdW  Elec       q    Type
REMARK                         _______ _______ _______ _____ _____    ______ ____
ROOT
ATOM      1  C   UNL     1       5.588   5.876  -9.455  0.00  0.00    -0.021 A 
ATOM      2  C   UNL     1       4.947   6.547 -10.459  0.00  0.00    -0.004 A 
ATOM      3  C   UNL     1       5.621   7.626 -11.005  0.00  0.00    -0.000 A 
ATOM      4  C   UNL     1       6.999   7.576 -11.067  0.00  0.00    -0.000 A 
ATOM      5  C   UNL     1       7.688   6.598 -10.393  0.00  0.00    -0.000 A 
ATOM      6  C   UNL     1       6.965   5.845  -9.479  0.00  0.00    -0.004 A 
ENDROOT
BRANCH   1   7
ATOM      7  C   UNL     1       4.947   4.939  -8.513  0.00  0.00    +0.044 C 
BRANCH   7   8
ATOM      8  C   UNL     1       3.675   5.806  -7.867  0.00  0.00    +0.077 C 
ATOM      9  C   UNL     1       4.401   5.865  -6.363  0.00  0.00    +0.019 C 
BRANCH   8  11
ATOM     10  C   UNL     1       2.646   3.840  -8.627  0.00  0.00    +0.107 C 
ATOM     11  N   UNL     1       2.902   4.461  -7.472  0.00  0.00    -0.218 NA
ENDBRANCH   8  11
ENDBRANCH   7   8
ENDBRANCH   1   7
TORSDOF 3
ENDMDL
MODEL 3
REMARK VINA RESULT:      -5.3      2.567      4.876
REMARK  Name = 
REMARK  3 active torsions:
REMARK  status: ('A' for Active; 'I' for Inactive)
REMARK    1  A    between atoms: N_2  and  C_3
REMARK    2  A    between atoms: C_3  and  C_5
REMARK    3  A    between atoms: C_5  and  C_6
REMARK                            x       y       z     vdW  Elec       q    Type
REMARK                         _______ _______ _______ _____ _____    ______ ____
ROOT
ATOM      1  C   UNL     1       5.508   5.750  -9.658  0.00  0.00    -0.021 A 
ATOM      2  C   UNL     1       6.854   5.768  -9.421  0.00  0.00    -0.004 A 
ATOM      3  C   UNL     1       7.644   6.341 -10.403  0.00  0.00    -0.000 A 
ATOM      4  C   UNL     1       7.123   7.390 -11.134  0.00  0.00    -0.000 A 
ATOM      5  C   UNL     1       5.787   7.695 -11.055  0.00  0.00    -0.000 A 
ATOM      6  C   UNL     1       4.975   6.769 -10.416  0.00  0.00    -0.004 A 
ENDROOT
BRANCH   1   7
ATOM      7  C   UNL     1       4.529   4.911  -8.942  0.00  0.00    +0.044 C 
BRANCH   7   8
ATOM      8  C   UNL     1       3.612   5.997  -8.066  0.00  0.00    +0.077 C 
ATOM      9  C   UNL     1       4.429   5.640  -6.653  0.00  0.00    +0.019 C 
BRANCH   8  11
ATOM     10  C   UNL     1       2.775   3.868  -8.581  0.00  0.00    +0.107 C 
ATOM     11  N   UNL     1       2.512   4.879  -7.747  0.00  0.00    -0.218 NA
ENDBRANCH   8  11
ENDBRANCH   7   8
ENDBRANCH   1   7
TORSDOF 3
ENDMDL
MODEL 4
REMARK VINA RESULT:      -5.1      8.027     10.861
REMARK  Name = 
REMARK  3 active torsions:
REMARK  status: ('A' for Active; 'I' for Inactive)
REMARK    1  A    between atoms: N_2  and  C_3
REMARK    2  A    between atoms: C_3  and  C_5
REMARK    3  A    between atoms: C_5  and  C_6
REMARK                            x       y       z     vdW  Elec       q    Type
REMARK                         _______ _______ _______ _____ _____    ______ ____
ROOT
ATOM      1  C   UNL     1      -1.130   6.448  -5.164  0.00  0.00    -0.021 A 
ATOM      2  C   UNL     1       0.106   6.925  -5.501  0.00  0.00    -0.004 A 
ATOM      3  C   UNL     1       0.841   6.157  -6.388  0.00  0.00    -0.000 A 
ATOM      4  C   UNL     1       0.163   5.441  -7.354  0.00  0.00    -0.000 A 
ATOM      5  C   UNL     1      -1.201   5.305  -7.286  0.00  0.00    -0.000 A 
ATOM      6  C   UNL     1      -1.808   5.701  -6.102  0.00  0.00    -0.004 A 
ENDROOT
BRANCH   1   7
ATOM      7  C   UNL     1      -1.930   6.898  -4.009  0.00  0.00    +0.044 C 
BRANCH   7   8
ATOM      8  C   UNL     1      -2.868   5.575  -3.614  0.00  0.00    +0.077 C 
ATOM      9  C   UNL     1      -3.701   6.437  -2.450  0.00  0.00    +0.019 C 
BRANCH   8  11
ATOM     10  C   UNL     1      -2.074   5.777  -1.417  0.00  0.00    +0.107 C 
ATOM     11  N   UNL     1      -1.799   5.086  -2.527  0.00  0.00    -0.218 NA
ENDBRANCH   8  11
ENDBRANCH   7   8
ENDBRANCH   1   7
TORSDOF 3
ENDMDL
MODEL 5
REMARK VINA RESULT:      -5.0      5.580      7.718
REMARK  Name = 
REMARK  3 active torsions:
REMARK  status: ('A' for Active; 'I' for Inactive)
REMARK    1  A    between atoms: N_2  and  C_3
REMARK    2  A    between atoms: C_3  and  C_5
REMARK    3  A    between atoms: C_5  and  C_6
REMARK                            x       y       z     vdW  Elec       q    Type
REMARK                         _______ _______ _______ _____ _____    ______ ____
ROOT
ATOM      1  C   UNL     1       0.021   6.150  -6.170  0.00  0.00    -0.021 A 
ATOM      2  C   UNL     1      -0.125   6.884  -5.026  0.00  0.00    -0.004 A 
ATOM      3  C   UNL     1      -1.346   7.509  -4.847  0.00  0.00    -0.000 A 
ATOM      4  C   UNL     1      -2.478   6.893  -5.342  0.00  0.00    -0.000 A 
ATOM      5  C   UNL     1      -2.367   5.819  -6.189  0.00  0.00    -0.000 A 
ATOM      6  C   UNL     1      -1.104   5.556  -6.699  0.00  0.00    -0.004 A 
ENDROOT
BRANCH   1   7
ATOM      7  C   UNL     1       1.306   5.692  -6.730  0.00  0.00    +0.044 C 
BRANCH   7   8
ATOM      8  C   UNL     1       2.373   6.929  -6.385  0.00  0.00    +0.077 C 
ATOM      9  C   UNL     1       2.169   7.607  -7.899  0.00  0.00    +0.019 C 
BRANCH   8  11
ATOM     10  C   UNL     1       4.293   5.710  -5.814  0.00  0.00    +0.107 C 
ATOM     11  N   UNL     1       3.614   6.063  -6.909  0.00  0.00    -0.218 NA
ENDBRANCH   8  11
ENDBRANCH   7   8
ENDBRANCH   1   7
TORSDOF 3
ENDMDL
MODEL 6
REMARK VINA RESULT:      -4.9      5.742      7.772
REMARK  Name = 
REMARK  3 active torsions:
REMARK  status: ('A' for Active; 'I' for Inactive)
REMARK    1  A    between atoms: N_2  and  C_3
REMARK    2  A    between atoms: C_3  and  C_5
REMARK    3  A    between atoms: C_5  and  C_6
REMARK                            x       y       z     vdW  Elec       q    Type
REMARK                         _______ _______ _______ _____ _____    ______ ____
ROOT
ATOM      1  C   UNL     1      -0.181   5.325  -5.971  0.00  0.00    -0.021 A 
ATOM      2  C   UNL     1      -1.243   5.242  -6.828  0.00  0.00    -0.004 A 
ATOM      3  C   UNL     1      -2.457   5.706  -6.351  0.00  0.00    -0.000 A 
ATOM      4  C   UNL     1      -2.452   6.762  -5.462  0.00  0.00    -0.000 A 
ATOM      5  C   UNL     1      -1.277   7.179  -4.888  0.00  0.00    -0.000 A 
ATOM      6  C   UNL     1      -0.175   6.352  -5.053  0.00  0.00    -0.004 A 
ENDROOT
BRANCH   1   7
ATOM      7  C   UNL     1       1.095   4.601  -6.125  0.00  0.00    +0.044 C 
BRANCH   7   8
ATOM      8  C   UNL     1       1.893   5.420  -7.341  0.00  0.00    +0.077 C 
ATOM      9  C   UNL     1       2.487   3.999  -7.990  0.00  0.00    +0.019 C 
BRANCH   8  11
ATOM     10  C   UNL     1       3.301   6.893  -6.181  0.00  0.00    +0.107 C 
ATOM     11  N   UNL     1       3.200   5.584  -6.432  0.00  0.00    -0.218 NA
ENDBRANCH   8  11
ENDBRANCH   7   8
ENDBRANCH   1   7
TORSDOF 3
ENDMDL
MODEL 7
REMARK VINA RESULT:      -4.9      1.155      2.306
REMARK  Name = 
REMARK  3 active torsions:
REMARK  status: ('A' for Active; 'I' for Inactive)
REMARK    1  A    between atoms: N_2  and  C_3
REMARK    2  A    between atoms: C_3  and  C_5
REMARK    3  A    between atoms: C_5  and  C_6
REMARK                            x       y       z     vdW  Elec       q    Type
REMARK                         _______ _______ _______ _____ _____    ______ ____
ROOT
ATOM      1  C   UNL     1       4.842   5.861  -9.463  0.00  0.00    -0.021 A 
ATOM      2  C   UNL     1       5.013   5.079  -8.355  0.00  0.00    -0.004 A 
ATOM      3  C   UNL     1       4.563   5.604  -7.156  0.00  0.00    -0.000 A 
ATOM      4  C   UNL     1       3.455   6.427  -7.175  0.00  0.00    -0.000 A 
ATOM      5  C   UNL     1       2.963   6.900  -8.367  0.00  0.00    -0.000 A 
ATOM      6  C   UNL     1       3.762   6.715  -9.486  0.00  0.00    -0.004 A 
ENDROOT
BRANCH   1   7
ATOM      7  C   UNL     1       5.531   5.670 -10.753  0.00  0.00    +0.044 C 
BRANCH   7   8
ATOM      8  C   UNL     1       7.153   5.817 -10.383  0.00  0.00    +0.077 C 
ATOM      9  C   UNL     1       7.192   7.401 -10.914  0.00  0.00    +0.019 C 
BRANCH   8  11
ATOM     10  C   UNL     1       8.798   5.786 -12.054  0.00  0.00    +0.107 C 
ATOM     11  N   UNL     1       7.576   5.291 -11.835  0.00  0.00    -0.218 NA
ENDBRANCH   8  11
ENDBRANCH   7   8
ENDBRANCH   1   7
TORSDOF 3
ENDMDL
MODEL 8
REMARK VINA RESULT:      -4.8      5.242      6.974
REMARK  Name = 
REMARK  3 active torsions:
REMARK  status: ('A' for Active; 'I' for Inactive)
REMARK    1  A    between atoms: N_2  and  C_3
REMARK    2  A    between atoms: C_3  and  C_5
REMARK    3  A    between atoms: C_5  and  C_6
REMARK                            x       y       z     vdW  Elec       q    Type
REMARK                         _______ _______ _______ _____ _____    ______ ____
ROOT
ATOM      1  C   UNL     1       0.594   6.173  -6.579  0.00  0.00    -0.021 A 
ATOM      2  C   UNL     1      -0.307   5.564  -7.408  0.00  0.00    -0.004 A 
ATOM      3  C   UNL     1      -1.499   5.160  -6.830  0.00  0.00    -0.000 A 
ATOM      4  C   UNL     1      -2.012   5.910  -5.792  0.00  0.00    -0.000 A 
ATOM      5  C   UNL     1      -1.249   6.882  -5.196  0.00  0.00    -0.000 A 
ATOM      6  C   UNL     1       0.101   6.897  -5.516  0.00  0.00    -0.004 A 
ENDROOT
BRANCH   1   7
ATOM      7  C   UNL     1       2.024   6.373  -6.878  0.00  0.00    +0.044 C 
BRANCH   7   8
ATOM      8  C   UNL     1       2.730   4.899  -6.531  0.00  0.00    +0.077 C 
ATOM      9  C   UNL     1       4.106   5.632  -5.929  0.00  0.00    +0.019 C 
BRANCH   8  11
ATOM     10  C   UNL     1       2.752   3.811  -8.608  0.00  0.00    +0.107 C 
ATOM     11  N   UNL     1       3.379   4.818  -7.992  0.00  0.00    -0.218 NA
ENDBRANCH   8  11
ENDBRANCH   7   8
ENDBRANCH   1   7
TORSDOF 3
ENDMDL
MODEL 9
REMARK VINA RESULT:      -4.7      1.832      2.937
REMARK  Name = 
REMARK  3 active torsions:
REMARK  status: ('A' for Active; 'I' for Inactive)
REMARK    1  A    between atoms: N_2  and  C_3
REMARK    2  A    between atoms: C_3  and  C_5
REMARK    3  A    between atoms: C_5  and  C_6
REMARK                            x       y       z     vdW  Elec       q    Type
REMARK                         _______ _______ _______ _____ _____    ______ ____
ROOT
ATOM      1  C   UNL     1       4.826   5.310  -8.608  0.00  0.00    -0.021 A 
ATOM      2  C   UNL     1       4.646   5.514  -7.268  0.00  0.00    -0.004 A 
ATOM      3  C   UNL     1       3.351   5.391  -6.796  0.00  0.00    -0.000 A 
ATOM      4  C   UNL     1       2.513   4.481  -7.408  0.00  0.00    -0.000 A 
ATOM      5  C   UNL     1       2.876   3.893  -8.594  0.00  0.00    -0.000 A 
ATOM      6  C   UNL     1       3.977   4.432  -9.245  0.00  0.00    -0.004 A 
ENDROOT
BRANCH   1   7
ATOM      7  C   UNL     1       6.019   5.713  -9.378  0.00  0.00    +0.044 C 
BRANCH   7   8
ATOM      8  C   UNL     1       5.476   5.831 -10.952  0.00  0.00    +0.077 C 
ATOM      9  C   UNL     1       7.030   6.019 -11.537  0.00  0.00    +0.019 C 
BRANCH   8  11
ATOM     10  C   UNL     1       6.417   7.944 -11.337  0.00  0.00    +0.107 C 
ATOM     11  N   UNL     1       5.303   7.417 -10.820  0.00  0.00    -0.218 NA
ENDBRANCH   8  11
ENDBRANCH   7   8
ENDBRANCH   1   7
TORSDOF 3
ENDMDL
