MODEL 1
REMARK VINA RESULT:      -6.8      0.000      0.000
REMARK  Name = 
REMARK  10 active torsions:
REMARK  status: ('A' for Active; 'I' for Inactive)
REMARK    1  A    between atoms: O_2  and  C_3
REMARK    2  A    between atoms: C_3  and  C_4
REMARK    3  A    between atoms: C_4  and  C_5
REMARK    4  A    between atoms: C_5  and  C_6
REMARK    5  A    between atoms: C_6  and  C_7
REMARK    6  A    between atoms: C_7  and  C_13
REMARK    7  A    between atoms: N_8  and  O_9
REMARK    8  A    between atoms: O_9  and  C_10
REMARK    9  A    between atoms: C_10  and  C_11
REMARK   10  A    between atoms: C_16  and  C_17
REMARK                            x       y       z     vdW  Elec       q    Type
REMARK                         _______ _______ _______ _____ _____    ______ ____
ROOT
ATOM      1  C   UNL     1       3.611   6.466  -9.989  0.00  0.00    +0.097 C 
ATOM      2  N   UNL     1       3.096   5.839 -11.006  0.00  0.00    -0.087 NA
ENDROOT
BRANCH   1   3
ATOM      3  C   UNL     1       5.039   6.791 -10.090  0.00  0.00    +0.017 A 
ATOM      4  C   UNL     1       5.518   7.763 -10.956  0.00  0.00    +0.001 A 
ATOM      5  C   UNL     1       6.707   7.547 -11.644  0.00  0.00    +0.004 A 
ATOM      6  C   UNL     1       7.502   6.453 -11.316  0.00  0.00    +0.071 A 
ATOM      7  C   UNL     1       7.309   5.976 -10.024  0.00  0.00    +0.004 A 
ATOM      8  C   UNL     1       6.010   5.976  -9.522  0.00  0.00    +0.001 A 
BRANCH   6   9
ATOM      9  C   UNL     1       8.365   5.763 -12.309  0.00  0.00    +0.419 C 
ATOM     10  F   UNL     1       8.108   6.333 -13.534  0.00  0.00    -0.166 F 
ATOM     11  F   UNL     1       9.707   5.896 -12.028  0.00  0.00    -0.166 F 
ATOM     12  F   UNL     1       7.970   4.453 -12.347  0.00  0.00    -0.166 F 
ENDBRANCH   6   9
ENDBRANCH   1   3
BRANCH   1  13
ATOM     13  C   UNL     1       3.200   5.931  -8.649  0.00  0.00    +0.049 C 
BRANCH  13  14
ATOM     14  C   UNL     1       2.448   7.076  -7.981  0.00  0.00    +0.009 C 
BRANCH  14  15
ATOM     15  C   UNL     1       2.990   7.188  -6.567  0.00  0.00    +0.032 C 
BRANCH  15  16
ATOM     16  C   UNL     1       3.775   5.905  -6.316  0.00  0.00    +0.142 C 
BRANCH  16  18
ATOM     17  C   UNL     1       4.355   7.330  -4.665  0.00  0.00    +0.174 C 
ATOM     18  O   UNL     1       4.791   6.243  -5.407  0.00  0.00    -0.351 OA
ENDBRANCH  16  18
ENDBRANCH  15  16
ENDBRANCH  14  15
ENDBRANCH  13  14
ENDBRANCH   1  13
BRANCH   2  19
ATOM     19  O   UNL     1       1.880   5.204 -10.931  0.00  0.00    -0.376 OA
BRANCH  19  20
ATOM     20  C   UNL     1       0.797   5.708 -11.677  0.00  0.00    +0.259 C 
BRANCH  20  21
ATOM     21  C   UNL     1      -0.073   6.638 -10.876  0.00  0.00    +0.159 C 
ATOM     22  N   UNL     1      -0.491   7.709 -11.766  0.00  0.00    -0.127 NA
ENDBRANCH  20  21
ENDBRANCH  19  20
ENDBRANCH   2  19
TORSDOF 10
ENDMDL
MODEL 2
REMARK VINA RESULT:      -6.7      5.779      8.516
REMARK  Name = 
REMARK  10 active torsions:
REMARK  status: ('A' for Active; 'I' for Inactive)
REMARK    1  A    between atoms: O_2  and  C_3
REMARK    2  A    between atoms: C_3  and  C_4
REMARK    3  A    between atoms: C_4  and  C_5
REMARK    4  A    between atoms: C_5  and  C_6
REMARK    5  A    between atoms: C_6  and  C_7
REMARK    6  A    between atoms: C_7  and  C_13
REMARK    7  A    between atoms: N_8  and  O_9
REMARK    8  A    between atoms: O_9  and  C_10
REMARK    9  A    between atoms: C_10  and  C_11
REMARK   10  A    between atoms: C_16  and  C_17
REMARK                            x       y       z     vdW  Elec       q    Type
REMARK                         _______ _______ _______ _____ _____    ______ ____
ROOT
ATOM      1  C   UNL     1       1.132   5.141  -8.014  0.00  0.00    +0.097 C 
ATOM      2  N   UNL     1       2.149   4.338  -7.896  0.00  0.00    -0.087 NA
ENDROOT
BRANCH   1   3
ATOM      3  C   UNL     1       0.155   5.108  -6.918  0.00  0.00    +0.017 A 
ATOM      4  C   UNL     1      -1.211   5.019  -7.145  0.00  0.00    +0.001 A 
ATOM      5  C   UNL     1      -2.089   5.753  -6.356  0.00  0.00    +0.004 A 
ATOM      6  C   UNL     1      -1.611   6.414  -5.229  0.00  0.00    +0.071 A 
ATOM      7  C   UNL     1      -0.437   5.881  -4.711  0.00  0.00    +0.004 A 
ATOM      8  C   UNL     1       0.517   5.420  -5.614  0.00  0.00    +0.001 A 
BRANCH   6   9
ATOM      9  C   UNL     1      -2.219   7.671  -4.720  0.00  0.00    +0.419 C 
ATOM     10  F   UNL     1      -3.233   8.010  -5.585  0.00  0.00    -0.166 F 
ATOM     11  F   UNL     1      -2.741   7.531  -3.452  0.00  0.00    -0.166 F 
ATOM     12  F   UNL     1      -1.255   8.640  -4.780  0.00  0.00    -0.166 F 
ENDBRANCH   6   9
ENDBRANCH   1   3
BRANCH   1  13
ATOM     13  C   UNL     1       0.513   5.171  -9.380  0.00  0.00    +0.049 C 
BRANCH  13  14
ATOM     14  C   UNL     1       0.668   6.612  -9.852  0.00  0.00    +0.009 C 
BRANCH  14  15
ATOM     15  C   UNL     1       0.283   6.634 -11.321  0.00  0.00    +0.032 C 
BRANCH  15  16
ATOM     16  C   UNL     1       1.001   5.451 -11.960  0.00  0.00    +0.142 C 
BRANCH  16  18
ATOM     17  C   UNL     1       0.806   4.389 -13.942  0.00  0.00    +0.174 C 
ATOM     18  O   UNL     1       0.897   5.639 -13.348  0.00  0.00    -0.351 OA
ENDBRANCH  16  18
ENDBRANCH  15  16
ENDBRANCH  14  15
ENDBRANCH  13  14
ENDBRANCH   1  13
BRANCH   2  19
ATOM     19  O   UNL     1       2.963   4.032  -8.959  0.00  0.00    -0.376 OA
BRANCH  19  20
ATOM     20  C   UNL     1       4.226   4.650  -9.054  0.00  0.00    +0.259 C 
BRANCH  20  21
ATOM     21  C   UNL     1       4.426   5.358 -10.367  0.00  0.00    +0.159 C 
ATOM     22  N   UNL     1       4.234   6.777 -10.124  0.00  0.00    -0.127 NA
ENDBRANCH  20  21
ENDBRANCH  19  20
ENDBRANCH   2  19
TORSDOF 10
ENDMDL
MODEL 3
REMARK VINA RESULT:      -6.7      2.369      4.644
REMARK  Name = 
REMARK  10 active torsions:
REMARK  status: ('A' for Active; 'I' for Inactive)
REMARK    1  A    between atoms: O_2  and  C_3
REMARK    2  A    between atoms: C_3  and  C_4
REMARK    3  A    between atoms: C_4  and  C_5
REMARK    4  A    between atoms: C_5  and  C_6
REMARK    5  A    between atoms: C_6  and  C_7
REMARK    6  A    between atoms: C_7  and  C_13
REMARK    7  A    between atoms: N_8  and  O_9
REMARK    8  A    between atoms: O_9  and  C_10
REMARK    9  A    between atoms: C_10  and  C_11
REMARK   10  A    between atoms: C_16  and  C_17
REMARK                            x       y       z     vdW  Elec       q    Type
REMARK                         _______ _______ _______ _____ _____    ______ ____
ROOT
ATOM      1  C   UNL     1       3.084   6.190  -7.849  0.00  0.00    +0.097 C 
ATOM      2  N   UNL     1       3.584   6.677  -6.750  0.00  0.00    -0.087 NA
ENDROOT
BRANCH   1   3
ATOM      3  C   UNL     1       4.056   5.794  -8.876  0.00  0.00    +0.017 A 
ATOM      4  C   UNL     1       5.293   5.252  -8.556  0.00  0.00    +0.001 A 
ATOM      5  C   UNL     1       6.416   5.620  -9.288  0.00  0.00    +0.004 A 
ATOM      6  C   UNL     1       6.263   6.371 -10.449  0.00  0.00    +0.071 A 
ATOM      7  C   UNL     1       5.012   6.255 -11.043  0.00  0.00    +0.004 A 
ATOM      8  C   UNL     1       3.904   6.173 -10.204  0.00  0.00    +0.001 A 
BRANCH   6   9
ATOM      9  C   UNL     1       7.294   7.331 -10.924  0.00  0.00    +0.419 C 
ATOM     10  F   UNL     1       8.127   7.590  -9.861  0.00  0.00    -0.166 F 
ATOM     11  F   UNL     1       8.044   6.830 -11.966  0.00  0.00    -0.166 F 
ATOM     12  F   UNL     1       6.646   8.488 -11.260  0.00  0.00    -0.166 F 
ENDBRANCH   6   9
ENDBRANCH   1   3
BRANCH   1  13
ATOM     13  C   UNL     1       1.901   6.940  -8.385  0.00  0.00    +0.049 C 
BRANCH  13  14
ATOM     14  C   UNL     1       0.768   5.921  -8.412  0.00  0.00    +0.009 C 
BRANCH  14  15
ATOM     15  C   UNL     1       0.163   5.977  -9.804  0.00  0.00    +0.032 C 
BRANCH  15  16
ATOM     16  C   UNL     1       0.491   4.639 -10.456  0.00  0.00    +0.142 C 
BRANCH  16  18
ATOM     17  C   UNL     1       0.528   6.266 -12.020  0.00  0.00    +0.174 C 
ATOM     18  O   UNL     1       0.810   4.928 -11.793  0.00  0.00    -0.351 OA
ENDBRANCH  16  18
ENDBRANCH  15  16
ENDBRANCH  14  15
ENDBRANCH  13  14
ENDBRANCH   1  13
BRANCH   2  19
ATOM     19  O   UNL     1       2.816   7.367  -5.844  0.00  0.00    -0.376 OA
BRANCH  19  20
ATOM     20  C   UNL     1       2.486   6.753  -4.619  0.00  0.00    +0.259 C 
BRANCH  20  21
ATOM     21  C   UNL     1       1.033   6.369  -4.539  0.00  0.00    +0.159 C 
ATOM     22  N   UNL     1       0.942   4.959  -4.879  0.00  0.00    -0.127 NA
ENDBRANCH  20  21
ENDBRANCH  19  20
ENDBRANCH   2  19
TORSDOF 10
ENDMDL
MODEL 4
REMARK VINA RESULT:      -6.6      2.794      3.763
REMARK  Name = 
REMARK  10 active torsions:
REMARK  status: ('A' for Active; 'I' for Inactive)
REMARK    1  A    between atoms: O_2  and  C_3
REMARK    2  A    between atoms: C_3  and  C_4
REMARK    3  A    between atoms: C_4  and  C_5
REMARK    4  A    between atoms: C_5  and  C_6
REMARK    5  A    between atoms: C_6  and  C_7
REMARK    6  A    between atoms: C_7  and  C_13
REMARK    7  A    between atoms: N_8  and  O_9
REMARK    8  A    between atoms: O_9  and  C_10
REMARK    9  A    between atoms: C_10  and  C_11
REMARK   10  A    between atoms: C_16  and  C_17
REMARK                            x       y       z     vdW  Elec       q    Type
REMARK                         _______ _______ _______ _____ _____    ______ ____
ROOT
ATOM      1  C   UNL     1       3.541   5.158  -7.406  0.00  0.00    +0.097 C 
ATOM      2  N   UNL     1       2.624   4.238  -7.311  0.00  0.00    -0.087 NA
ENDROOT
BRANCH   1   3
ATOM      3  C   UNL     1       4.462   5.031  -8.543  0.00  0.00    +0.017 A 
ATOM      4  C   UNL     1       5.838   4.965  -8.376  0.00  0.00    +0.001 A 
ATOM      5  C   UNL     1       6.672   5.630  -9.269  0.00  0.00    +0.004 A 
ATOM      6  C   UNL     1       6.135   6.189 -10.424  0.00  0.00    +0.071 A 
ATOM      7  C   UNL     1       4.940   5.610 -10.835  0.00  0.00    +0.004 A 
ATOM      8  C   UNL     1       4.035   5.227  -9.849  0.00  0.00    +0.001 A 
BRANCH   6   9
ATOM      9  C   UNL     1       6.709   7.398 -11.071  0.00  0.00    +0.419 C 
ATOM     10  F   UNL     1       7.704   7.865 -10.244  0.00  0.00    -0.166 F 
ATOM     11  F   UNL     1       7.247   7.131 -12.311  0.00  0.00    -0.166 F 
ATOM     12  F   UNL     1       5.715   8.337 -11.127  0.00  0.00    -0.166 F 
ENDBRANCH   6   9
ENDBRANCH   1   3
BRANCH   1  13
ATOM     13  C   UNL     1       4.213   5.509  -6.113  0.00  0.00    +0.049 C 
BRANCH  13  14
ATOM     14  C   UNL     1       3.771   6.936  -5.813  0.00  0.00    +0.009 C 
BRANCH  14  15
ATOM     15  C   UNL     1       3.787   7.090  -4.303  0.00  0.00    +0.032 C 
BRANCH  15  16
ATOM     16  C   UNL     1       4.012   5.691  -3.741  0.00  0.00    +0.142 C 
BRANCH  16  18
ATOM     17  C   UNL     1       3.971   5.033  -1.583  0.00  0.00    +0.174 C 
ATOM     18  O   UNL     1       3.209   5.599  -2.593  0.00  0.00    -0.351 OA
ENDBRANCH  16  18
ENDBRANCH  15  16
ENDBRANCH  14  15
ENDBRANCH  13  14
ENDBRANCH   1  13
BRANCH   2  19
ATOM     19  O   UNL     1       1.904   4.046  -6.158  0.00  0.00    -0.376 OA
BRANCH  19  20
ATOM     20  C   UNL     1       0.616   4.607  -6.054  0.00  0.00    +0.259 C 
BRANCH  20  21
ATOM     21  C   UNL     1       0.421   5.375  -4.775  0.00  0.00    +0.159 C 
ATOM     22  N   UNL     1       0.209   6.766  -5.137  0.00  0.00    -0.127 NA
ENDBRANCH  20  21
ENDBRANCH  19  20
ENDBRANCH   2  19
TORSDOF 10
ENDMDL
MODEL 5
REMARK VINA RESULT:      -6.4      5.749      7.613
REMARK  Name = 
REMARK  10 active torsions:
REMARK  status: ('A' for Active; 'I' for Inactive)
REMARK    1  A    between atoms: O_2  and  C_3
REMARK    2  A    between atoms: C_3  and  C_4
REMARK    3  A    between atoms: C_4  and  C_5
REMARK    4  A    between atoms: C_5  and  C_6
REMARK    5  A    between atoms: C_6  and  C_7
REMARK    6  A    between atoms: C_7  and  C_13
REMARK    7  A    between atoms: N_8  and  O_9
REMARK    8  A    between atoms: O_9  and  C_10
REMARK    9  A    between atoms: C_10  and  C_11
REMARK   10  A    between atoms: C_16  and  C_17
REMARK                            x       y       z     vdW  Elec       q    Type
REMARK                         _______ _______ _______ _____ _____    ______ ____
ROOT
ATOM      1  C   UNL     1       1.492   5.365  -7.746  0.00  0.00    +0.097 C 
ATOM      2  N   UNL     1       1.127   5.406  -8.995  0.00  0.00    -0.087 NA
ENDROOT
BRANCH   1   3
ATOM      3  C   UNL     1       0.406   5.247  -6.764  0.00  0.00    +0.017 A 
ATOM      4  C   UNL     1      -0.920   5.091  -7.142  0.00  0.00    +0.001 A 
ATOM      5  C   UNL     1      -1.919   5.753  -6.437  0.00  0.00    +0.004 A 
ATOM      6  C   UNL     1      -1.605   6.407  -5.251  0.00  0.00    +0.071 A 
ATOM      7  C   UNL     1      -0.464   5.924  -4.619  0.00  0.00    +0.004 A 
ATOM      8  C   UNL     1       0.607   5.542  -5.422  0.00  0.00    +0.001 A 
BRANCH   6   9
ATOM      9  C   UNL     1      -2.335   7.613  -4.782  0.00  0.00    +0.419 C 
ATOM     10  F   UNL     1      -1.414   8.630  -4.682  0.00  0.00    -0.166 F 
ATOM     11  F   UNL     1      -3.333   7.999  -5.650  0.00  0.00    -0.166 F 
ATOM     12  F   UNL     1      -2.814   7.337  -3.531  0.00  0.00    -0.166 F 
ENDBRANCH   6   9
ENDBRANCH   1   3
BRANCH   1  13
ATOM     13  C   UNL     1       2.549   6.359  -7.369  0.00  0.00    +0.049 C 
BRANCH  13  14
ATOM     14  C   UNL     1       3.795   5.526  -7.096  0.00  0.00    +0.009 C 
BRANCH  14  15
ATOM     15  C   UNL     1       4.463   6.127  -5.872  0.00  0.00    +0.032 C 
BRANCH  15  16
ATOM     16  C   UNL     1       4.307   5.095  -4.761  0.00  0.00    +0.142 C 
BRANCH  16  18
ATOM     17  C   UNL     1       3.871   4.935  -2.552  0.00  0.00    +0.174 C 
ATOM     18  O   UNL     1       4.179   5.826  -3.568  0.00  0.00    -0.351 OA
ENDBRANCH  16  18
ENDBRANCH  15  16
ENDBRANCH  14  15
ENDBRANCH  13  14
ENDBRANCH   1  13
BRANCH   2  19
ATOM     19  O   UNL     1       1.980   5.821  -9.989  0.00  0.00    -0.376 OA
BRANCH  19  20
ATOM     20  C   UNL     1       1.470   6.028 -11.286  0.00  0.00    +0.259 C 
BRANCH  20  21
ATOM     21  C   UNL     1      -0.033   6.076 -11.315  0.00  0.00    +0.159 C 
ATOM     22  N   UNL     1      -0.417   7.471 -11.448  0.00  0.00    -0.127 NA
ENDBRANCH  20  21
ENDBRANCH  19  20
ENDBRANCH   2  19
TORSDOF 10
ENDMDL
MODEL 6
REMARK VINA RESULT:      -6.4      5.716      7.833
REMARK  Name = 
REMARK  10 active torsions:
REMARK  status: ('A' for Active; 'I' for Inactive)
REMARK    1  A    between atoms: O_2  and  C_3
REMARK    2  A    between atoms: C_3  and  C_4
REMARK    3  A    between atoms: C_4  and  C_5
REMARK    4  A    between atoms: C_5  and  C_6
REMARK    5  A    between atoms: C_6  and  C_7
REMARK    6  A    between atoms: C_7  and  C_13
REMARK    7  A    between atoms: N_8  and  O_9
REMARK    8  A    between atoms: O_9  and  C_10
REMARK    9  A    between atoms: C_10  and  C_11
REMARK   10  A    between atoms: C_16  and  C_17
REMARK                            x       y       z     vdW  Elec       q    Type
REMARK                         _______ _______ _______ _____ _____    ______ ____
ROOT
ATOM      1  C   UNL     1       1.134   6.094  -8.502  0.00  0.00    +0.097 C 
ATOM      2  N   UNL     1       0.396   6.183  -9.571  0.00  0.00    -0.087 NA
ENDROOT
BRANCH   1   3
ATOM      3  C   UNL     1       0.415   5.863  -7.243  0.00  0.00    +0.017 A 
ATOM      4  C   UNL     1      -0.847   5.287  -7.206  0.00  0.00    +0.001 A 
ATOM      5  C   UNL     1      -1.797   5.767  -6.312  0.00  0.00    +0.004 A 
ATOM      6  C   UNL     1      -1.420   6.682  -5.335  0.00  0.00    +0.071 A 
ATOM      7  C   UNL     1      -0.067   6.650  -5.014  0.00  0.00    +0.004 A 
ATOM      8  C   UNL     1       0.838   6.435  -6.050  0.00  0.00    +0.001 A 
BRANCH   6   9
ATOM      9  C   UNL     1      -2.350   7.709  -4.796  0.00  0.00    +0.419 C 
ATOM     10  F   UNL     1      -2.933   7.175  -3.670  0.00  0.00    -0.166 F 
ATOM     11  F   UNL     1      -1.708   8.879  -4.454  0.00  0.00    -0.166 F 
ATOM     12  F   UNL     1      -3.324   7.907  -5.737  0.00  0.00    -0.166 F 
ENDBRANCH   6   9
ENDBRANCH   1   3
BRANCH   1  13
ATOM     13  C   UNL     1       2.221   7.123  -8.404  0.00  0.00    +0.049 C 
BRANCH  13  14
ATOM     14  C   UNL     1       3.521   6.331  -8.466  0.00  0.00    +0.009 C 
BRANCH  14  15
ATOM     15  C   UNL     1       4.223   6.744  -9.747  0.00  0.00    +0.032 C 
BRANCH  15  16
ATOM     16  C   UNL     1       5.443   5.837  -9.867  0.00  0.00    +0.142 C 
BRANCH  16  18
ATOM     17  C   UNL     1       5.824   7.668 -11.130  0.00  0.00    +0.174 C 
ATOM     18  O   UNL     1       6.442   6.610 -10.482  0.00  0.00    -0.351 OA
ENDBRANCH  16  18
ENDBRANCH  15  16
ENDBRANCH  14  15
ENDBRANCH  13  14
ENDBRANCH   1  13
BRANCH   2  19
ATOM     19  O   UNL     1       0.880   6.698 -10.749  0.00  0.00    -0.376 OA
BRANCH  19  20
ATOM     20  C   UNL     1       0.219   6.388 -11.954  0.00  0.00    +0.259 C 
BRANCH  20  21
ATOM     21  C   UNL     1       0.996   5.421 -12.806  0.00  0.00    +0.159 C 
ATOM     22  N   UNL     1       2.394   5.811 -12.733  0.00  0.00    -0.127 NA
ENDBRANCH  20  21
ENDBRANCH  19  20
ENDBRANCH   2  19
TORSDOF 10
ENDMDL
MODEL 7
REMARK VINA RESULT:      -6.3      2.996      4.682
REMARK  Name = 
REMARK  10 active torsions:
REMARK  status: ('A' for Active; 'I' for Inactive)
REMARK    1  A    between atoms: O_2  and  C_3
REMARK    2  A    between atoms: C_3  and  C_4
REMARK    3  A    between atoms: C_4  and  C_5
REMARK    4  A    between atoms: C_5  and  C_6
REMARK    5  A    between atoms: C_6  and  C_7
REMARK    6  A    between atoms: C_7  and  C_13
REMARK    7  A    between atoms: N_8  and  O_9
REMARK    8  A    between atoms: O_9  and  C_10
REMARK    9  A    between atoms: C_10  and  C_11
REMARK   10  A    between atoms: C_16  and  C_17
REMARK                            x       y       z     vdW  Elec       q    Type
REMARK                         _______ _______ _______ _____ _____    ______ ____
ROOT
ATOM      1  C   UNL     1       3.416   6.067  -7.312  0.00  0.00    +0.097 C 
ATOM      2  N   UNL     1       4.068   6.704  -6.382  0.00  0.00    -0.087 NA
ENDROOT
BRANCH   1   3
ATOM      3  C   UNL     1       4.162   5.794  -8.547  0.00  0.00    +0.017 A 
ATOM      4  C   UNL     1       5.407   5.181  -8.540  0.00  0.00    +0.001 A 
ATOM      5  C   UNL     1       6.395   5.619  -9.415  0.00  0.00    +0.004 A 
ATOM      6  C   UNL     1       6.072   6.529 -10.416  0.00  0.00    +0.071 A 
ATOM      7  C   UNL     1       4.728   6.530 -10.773  0.00  0.00    +0.004 A 
ATOM      8  C   UNL     1       3.789   6.359  -9.759  0.00  0.00    +0.001 A 
BRANCH   6   9
ATOM      9  C   UNL     1       7.047   7.518 -10.944  0.00  0.00    +0.419 C 
ATOM     10  F   UNL     1       7.689   6.926 -12.006  0.00  0.00    -0.166 F 
ATOM     11  F   UNL     1       6.442   8.678 -11.378  0.00  0.00    -0.166 F 
ATOM     12  F   UNL     1       7.964   7.750  -9.956  0.00  0.00    -0.166 F 
ENDBRANCH   6   9
ENDBRANCH   1   3
BRANCH   1  13
ATOM     13  C   UNL     1       2.015   6.552  -7.540  0.00  0.00    +0.049 C 
BRANCH  13  14
ATOM     14  C   UNL     1       1.153   5.296  -7.506  0.00  0.00    +0.009 C 
BRANCH  14  15
ATOM     15  C   UNL     1       0.619   5.171  -6.090  0.00  0.00    +0.032 C 
BRANCH  15  16
ATOM     16  C   UNL     1       0.080   6.549  -5.722  0.00  0.00    +0.142 C 
BRANCH  16  18
ATOM     17  C   UNL     1       0.615   5.425  -3.839  0.00  0.00    +0.174 C 
ATOM     18  O   UNL     1       0.008   6.575  -4.320  0.00  0.00    -0.351 OA
ENDBRANCH  16  18
ENDBRANCH  15  16
ENDBRANCH  14  15
ENDBRANCH  13  14
ENDBRANCH   1  13
BRANCH   2  19
ATOM     19  O   UNL     1       3.428   7.295  -5.320  0.00  0.00    -0.376 OA
BRANCH  19  20
ATOM     20  C   UNL     1       3.970   7.148  -4.027  0.00  0.00    +0.259 C 
BRANCH  20  21
ATOM     21  C   UNL     1       4.782   5.890  -3.880  0.00  0.00    +0.159 C 
ATOM     22  N   UNL     1       4.191   5.121  -2.798  0.00  0.00    -0.127 NA
ENDBRANCH  20  21
ENDBRANCH  19  20
ENDBRANCH   2  19
TORSDOF 10
ENDMDL
MODEL 8
REMARK VINA RESULT:      -6.2      5.732      7.905
REMARK  Name = 
REMARK  10 active torsions:
REMARK  status: ('A' for Active; 'I' for Inactive)
REMARK    1  A    between atoms: O_2  and  C_3
REMARK    2  A    between atoms: C_3  and  C_4
REMARK    3  A    between atoms: C_4  and  C_5
REMARK    4  A    between atoms: C_5  and  C_6
REMARK    5  A    between atoms: C_6  and  C_7
REMARK    6  A    between atoms: C_7  and  C_13
REMARK    7  A    between atoms: N_8  and  O_9
REMARK    8  A    between atoms: O_9  and  C_10
REMARK    9  A    between atoms: C_10  and  C_11
REMARK   10  A    between atoms: C_16  and  C_17
REMARK                            x       y       z     vdW  Elec       q    Type
REMARK                         _______ _______ _______ _____ _____    ______ ____
ROOT
ATOM      1  C   UNL     1       2.366   5.096  -6.375  0.00  0.00    +0.097 C 
ATOM      2  N   UNL     1       2.576   4.535  -7.531  0.00  0.00    -0.087 NA
ENDROOT
BRANCH   1   3
ATOM      3  C   UNL     1       0.995   5.004  -5.857  0.00  0.00    +0.017 A 
ATOM      4  C   UNL     1      -0.113   5.000  -6.692  0.00  0.00    +0.001 A 
ATOM      5  C   UNL     1      -1.258   5.697  -6.320  0.00  0.00    +0.004 A 
ATOM      6  C   UNL     1      -1.353   6.226  -5.037  0.00  0.00    +0.071 A 
ATOM      7  C   UNL     1      -0.547   5.593  -4.098  0.00  0.00    +0.004 A 
ATOM      8  C   UNL     1       0.716   5.175  -4.507  0.00  0.00    +0.001 A 
BRANCH   6   9
ATOM      9  C   UNL     1      -2.130   7.456  -4.733  0.00  0.00    +0.419 C 
ATOM     10  F   UNL     1      -3.091   7.579  -5.710  0.00  0.00    -0.166 F 
ATOM     11  F   UNL     1      -2.749   7.402  -3.504  0.00  0.00    -0.166 F 
ATOM     12  F   UNL     1      -1.269   8.514  -4.835  0.00  0.00    -0.166 F 
ENDBRANCH   6   9
ENDBRANCH   1   3
BRANCH   1  13
ATOM     13  C   UNL     1       2.990   6.450  -6.213  0.00  0.00    +0.049 C 
BRANCH  13  14
ATOM     14  C   UNL     1       4.187   6.225  -5.297  0.00  0.00    +0.009 C 
BRANCH  14  15
ATOM     15  C   UNL     1       4.220   7.392  -4.326  0.00  0.00    +0.032 C 
BRANCH  15  16
ATOM     16  C   UNL     1       3.887   6.808  -2.958  0.00  0.00    +0.142 C 
BRANCH  16  18
ATOM     17  C   UNL     1       3.874   4.861  -1.817  0.00  0.00    +0.174 C 
ATOM     18  O   UNL     1       4.123   5.427  -3.058  0.00  0.00    -0.351 OA
ENDBRANCH  16  18
ENDBRANCH  15  16
ENDBRANCH  14  15
ENDBRANCH  13  14
ENDBRANCH   1  13
BRANCH   2  19
ATOM     19  O   UNL     1       3.700   4.801  -8.275  0.00  0.00    -0.376 OA
BRANCH  19  20
ATOM     20  C   UNL     1       3.573   4.974  -9.668  0.00  0.00    +0.259 C 
BRANCH  20  21
ATOM     21  C   UNL     1       4.689   5.798 -10.251  0.00  0.00    +0.159 C 
ATOM     22  N   UNL     1       4.898   5.336 -11.613  0.00  0.00    -0.127 NA
ENDBRANCH  20  21
ENDBRANCH  19  20
ENDBRANCH   2  19
TORSDOF 10
ENDMDL
MODEL 9
REMARK VINA RESULT:      -6.2      2.271      4.632
REMARK  Name = 
REMARK  10 active torsions:
REMARK  status: ('A' for Active; 'I' for Inactive)
REMARK    1  A    between atoms: O_2  and  C_3
REMARK    2  A    between atoms: C_3  and  C_4
REMARK    3  A    between atoms: C_4  and  C_5
REMARK    4  A    between atoms: C_5  and  C_6
REMARK    5  A    between atoms: C_6  and  C_7
REMARK    6  A    between atoms: C_7  and  C_13
REMARK    7  A    between atoms: N_8  and  O_9
REMARK    8  A    between atoms: O_9  and  C_10
REMARK    9  A    between atoms: C_10  and  C_11
REMARK   10  A    between atoms: C_16  and  C_17
REMARK                            x       y       z     vdW  Elec       q    Type
REMARK                         _______ _______ _______ _____ _____    ______ ____
ROOT
ATOM      1  C   UNL     1       2.617   4.864  -9.315  0.00  0.00    +0.097 C 
ATOM      2  N   UNL     1       2.526   4.987  -8.022  0.00  0.00    -0.087 NA
ENDROOT
BRANCH   1   3
ATOM      3  C   UNL     1       3.978   4.864  -9.866  0.00  0.00    +0.017 A 
ATOM      4  C   UNL     1       5.104   4.932  -9.057  0.00  0.00    +0.001 A 
ATOM      5  C   UNL     1       6.191   5.703  -9.454  0.00  0.00    +0.004 A 
ATOM      6  C   UNL     1       6.221   6.239 -10.737  0.00  0.00    +0.071 A 
ATOM      7  C   UNL     1       5.436   5.555 -11.659  0.00  0.00    +0.004 A 
ATOM      8  C   UNL     1       4.213   5.055 -11.221  0.00  0.00    +0.001 A 
BRANCH   6   9
ATOM      9  C   UNL     1       6.908   7.518 -11.056  0.00  0.00    +0.419 C 
ATOM     10  F   UNL     1       5.931   8.476 -11.202  0.00  0.00    -0.166 F 
ATOM     11  F   UNL     1       7.777   7.914 -10.063  0.00  0.00    -0.166 F 
ATOM     12  F   UNL     1       7.536   7.351 -12.260  0.00  0.00    -0.166 F 
ENDBRANCH   6   9
ENDBRANCH   1   3
BRANCH   1  13
ATOM     13  C   UNL     1       1.644   5.698 -10.094  0.00  0.00    +0.049 C 
BRANCH  13  14
ATOM     14  C   UNL     1       0.632   4.705 -10.652  0.00  0.00    +0.009 C 
BRANCH  14  15
ATOM     15  C   UNL     1       0.457   5.040 -12.123  0.00  0.00    +0.032 C 
BRANCH  15  16
ATOM     16  C   UNL     1       0.967   6.467 -12.291  0.00  0.00    +0.142 C 
BRANCH  16  18
ATOM     17  C   UNL     1       1.292   5.381 -14.243  0.00  0.00    +0.174 C 
ATOM     18  O   UNL     1       1.687   6.482 -13.498  0.00  0.00    -0.351 OA
ENDBRANCH  16  18
ENDBRANCH  15  16
ENDBRANCH  14  15
ENDBRANCH  13  14
ENDBRANCH   1  13
BRANCH   2  19
ATOM     19  O   UNL     1       1.343   5.313  -7.404  0.00  0.00    -0.376 OA
BRANCH  19  20
ATOM     20  C   UNL     1       1.332   6.354  -6.455  0.00  0.00    +0.259 C 
BRANCH  20  21
ATOM     21  C   UNL     1       2.479   7.312  -6.633  0.00  0.00    +0.159 C 
ATOM     22  N   UNL     1       2.107   8.235  -7.692  0.00  0.00    -0.127 NA
ENDBRANCH  20  21
ENDBRANCH  19  20
ENDBRANCH   2  19
TORSDOF 10
ENDMDL
