MODEL 1
REMARK VINA RESULT:      -9.2      0.000      0.000
REMARK  Name = 
REMARK  7 active torsions:
REMARK  status: ('A' for Active; 'I' for Inactive)
REMARK    1  A    between atoms: N_7  and  C_8
REMARK    2  A    between atoms: C_11  and  O_12
REMARK    3  A    between atoms: O_12  and  C_13
REMARK    4  A    between atoms: C_13  and  C_14
REMARK    5  A    between atoms: C_17  and  C_18
REMARK    6  A    between atoms: C_17  and  C_24
REMARK    7  A    between atoms: C_18  and  N_19
REMARK                            x       y       z     vdW  Elec       q    Type
REMARK                         _______ _______ _______ _____ _____    ______ ____
ROOT
ATOM      1  C   UNL     1       4.104   5.368  -8.599  0.00  0.00    +0.191 C 
ATOM      2  O   UNL     1       2.821   6.065  -8.990  0.00  0.00    -0.325 OA
ATOM      3  C   UNL     1       1.850   5.154  -8.932  0.00  0.00    +0.230 C 
ATOM      4  O   UNL     1       2.282   3.948  -8.444  0.00  0.00    -0.327 OA
ATOM      5  C   UNL     1       3.533   3.875  -8.993  0.00  0.00    +0.178 C 
ENDROOT
BRANCH   3   6
ATOM      6  C   UNL     1       0.802   5.638  -7.975  0.00  0.00    +0.041 A 
ATOM      7  C   UNL     1       1.000   6.751  -7.181  0.00  0.00    +0.059 A 
ATOM      8 CL   UNL     1       2.081   7.993  -7.772  0.00  0.00    -0.082 Cl
ATOM      9  C   UNL     1       0.305   6.919  -5.994  0.00  0.00    +0.023 A 
ATOM     10  C   UNL     1      -0.549   5.892  -5.618  0.00  0.00    +0.058 A 
ATOM     11 CL   UNL     1      -1.218   5.962  -4.011  0.00  0.00    -0.082 Cl
ATOM     12  C   UNL     1      -1.071   5.094  -6.623  0.00  0.00    +0.011 A 
ATOM     13  C   UNL     1      -0.441   5.029  -7.859  0.00  0.00    +0.002 A 
ENDBRANCH   3   6
BRANCH   1  14
ATOM     14  C   UNL     1       3.638   5.216  -7.024  0.00  0.00    +0.237 C 
BRANCH  14  15
ATOM     15  O   UNL     1       4.587   6.023  -6.361  0.00  0.00    -0.473 OA
BRANCH  15  19
ATOM     16  C   UNL     1       3.266   6.050  -2.528  0.00  0.00    +0.048 A 
ATOM     17  C   UNL     1       3.211   7.212  -3.266  0.00  0.00    +0.018 A 
ATOM     18  C   UNL     1       3.863   7.275  -4.490  0.00  0.00    +0.038 A 
ATOM     19  C   UNL     1       4.599   6.202  -4.974  0.00  0.00    +0.139 A 
ATOM     20  C   UNL     1       4.773   5.149  -4.093  0.00  0.00    +0.038 A 
ATOM     21  C   UNL     1       4.212   5.091  -2.847  0.00  0.00    +0.018 A 
BRANCH  16  27
ATOM     22  C   UNL     1      -0.751   8.069   1.394  0.00  0.00    +0.095 C 
ATOM     23  C   UNL     1      -0.673   7.217   0.685  0.00  0.00    +0.226 C 
ATOM     24  N   UNL     1       0.491   6.980  -0.123  0.00  0.00    -0.276 N 
ATOM     25  C   UNL     1       1.680   7.726   0.284  0.00  0.00    +0.115 C 
ATOM     26  C   UNL     1       2.844   7.518  -0.637  0.00  0.00    +0.112 C 
ATOM     27  N   UNL     1       2.934   6.154  -1.137  0.00  0.00    -0.304 N 
ATOM     28  C   UNL     1       1.946   5.180  -0.678  0.00  0.00    +0.112 C 
ATOM     29  C   UNL     1       0.600   5.811  -0.995  0.00  0.00    +0.115 C 
ATOM     30  O   UNL     1      -1.620   6.382   0.546  0.00  0.00    -0.275 OA
ENDBRANCH  16  27
ENDBRANCH  15  19
ENDBRANCH  14  15
ENDBRANCH   1  14
BRANCH   3  31
ATOM     31  C   UNL     1       1.110   4.888 -10.220  0.00  0.00    +0.168 C 
BRANCH  31  32
ATOM     32  N   UNL     1       0.899   6.043 -11.032  0.00  0.00    -0.302 N 
ATOM     33  C   UNL     1       0.078   7.090 -10.962  0.00  0.00    +0.179 A 
ATOM     34  N   UNL     1      -0.071   7.636 -12.184  0.00  0.00    -0.222 NA
ATOM     35  C   UNL     1       0.964   7.166 -12.923  0.00  0.00    +0.119 A 
ATOM     36  C   UNL     1       1.699   6.331 -12.088  0.00  0.00    +0.098 A 
ENDBRANCH  31  32
ENDBRANCH   3  31
TORSDOF 7
ENDMDL
MODEL 2
REMARK VINA RESULT:      -9.1      2.446      8.947
REMARK  Name = 
REMARK  7 active torsions:
REMARK  status: ('A' for Active; 'I' for Inactive)
REMARK    1  A    between atoms: N_7  and  C_8
REMARK    2  A    between atoms: C_11  and  O_12
REMARK    3  A    between atoms: O_12  and  C_13
REMARK    4  A    between atoms: C_13  and  C_14
REMARK    5  A    between atoms: C_17  and  C_18
REMARK    6  A    between atoms: C_17  and  C_24
REMARK    7  A    between atoms: C_18  and  N_19
REMARK                            x       y       z     vdW  Elec       q    Type
REMARK                         _______ _______ _______ _____ _____    ______ ____
ROOT
ATOM      1  C   UNL     1       3.830   4.633  -4.450  0.00  0.00    +0.191 C 
ATOM      2  O   UNL     1       2.770   5.043  -3.453  0.00  0.00    -0.325 OA
ATOM      3  C   UNL     1       2.465   6.314  -3.711  0.00  0.00    +0.230 C 
ATOM      4  O   UNL     1       3.099   6.797  -4.827  0.00  0.00    -0.327 OA
ATOM      5  C   UNL     1       4.316   6.182  -4.724  0.00  0.00    +0.178 C 
ENDROOT
BRANCH   3   6
ATOM      6  C   UNL     1       0.995   6.401  -3.998  0.00  0.00    +0.041 A 
ATOM      7  C   UNL     1       0.078   5.605  -3.341  0.00  0.00    +0.059 A 
ATOM      8 CL   UNL     1       0.478   5.060  -1.727  0.00  0.00    -0.082 Cl
ATOM      9  C   UNL     1      -1.154   5.313  -3.906  0.00  0.00    +0.023 A 
ATOM     10  C   UNL     1      -1.392   5.810  -5.180  0.00  0.00    +0.058 A 
ATOM     11 CL   UNL     1      -2.812   5.230  -6.006  0.00  0.00    -0.082 Cl
ATOM     12  C   UNL     1      -0.705   6.951  -5.560  0.00  0.00    +0.011 A 
ATOM     13  C   UNL     1       0.465   7.312  -4.903  0.00  0.00    +0.002 A 
ENDBRANCH   3   6
BRANCH   1  14
ATOM     14  C   UNL     1       2.770   4.660  -5.713  0.00  0.00    +0.237 C 
BRANCH  14  15
ATOM     15  O   UNL     1       3.624   4.928  -6.804  0.00  0.00    -0.473 OA
BRANCH  15  19
ATOM     16  C   UNL     1       0.999   5.609  -9.817  0.00  0.00    +0.048 A 
ATOM     17  C   UNL     1       1.522   4.346  -9.655  0.00  0.00    +0.018 A 
ATOM     18  C   UNL     1       2.584   4.153  -8.780  0.00  0.00    +0.038 A 
ATOM     19  C   UNL     1       3.153   5.213  -8.089  0.00  0.00    +0.139 A 
ATOM     20  C   UNL     1       2.708   6.473  -8.452  0.00  0.00    +0.038 A 
ATOM     21  C   UNL     1       1.721   6.703  -9.370  0.00  0.00    +0.018 A 
BRANCH  16  27
ATOM     22  C   UNL     1       0.827   8.198 -15.189  0.00  0.00    +0.095 C 
ATOM     23  C   UNL     1       1.300   7.297 -14.742  0.00  0.00    +0.226 C 
ATOM     24  N   UNL     1       1.106   6.915 -13.371  0.00  0.00    -0.276 N 
ATOM     25  C   UNL     1      -0.003   7.589 -12.699  0.00  0.00    +0.115 C 
ATOM     26  C   UNL     1      -0.113   7.228 -11.249  0.00  0.00    +0.112 C 
ATOM     27  N   UNL     1       0.201   5.831 -10.987  0.00  0.00    -0.304 N 
ATOM     28  C   UNL     1       0.538   4.972 -12.120  0.00  0.00    +0.112 C 
ATOM     29  C   UNL     1       1.679   5.686 -12.824  0.00  0.00    +0.115 C 
ATOM     30  O   UNL     1       2.048   6.534 -15.427  0.00  0.00    -0.275 OA
ENDBRANCH  16  27
ENDBRANCH  15  19
ENDBRANCH  14  15
ENDBRANCH   1  14
BRANCH   3  31
ATOM     31  C   UNL     1       2.703   7.296  -2.589  0.00  0.00    +0.168 C 
BRANCH  31  32
ATOM     32  N   UNL     1       3.611   6.842  -1.586  0.00  0.00    -0.302 N 
ATOM     33  C   UNL     1       3.679   5.755  -0.819  0.00  0.00    +0.179 A 
ATOM     34  N   UNL     1       4.424   6.014   0.274  0.00  0.00    -0.222 NA
ATOM     35  C   UNL     1       5.132   7.130  -0.024  0.00  0.00    +0.119 A 
ATOM     36  C   UNL     1       4.762   7.503  -1.312  0.00  0.00    +0.098 A 
ENDBRANCH  31  32
ENDBRANCH   3  31
TORSDOF 7
ENDMDL
MODEL 3
REMARK VINA RESULT:      -8.9      3.312      5.084
REMARK  Name = 
REMARK  7 active torsions:
REMARK  status: ('A' for Active; 'I' for Inactive)
REMARK    1  A    between atoms: N_7  and  C_8
REMARK    2  A    between atoms: C_11  and  O_12
REMARK    3  A    between atoms: O_12  and  C_13
REMARK    4  A    between atoms: C_13  and  C_14
REMARK    5  A    between atoms: C_17  and  C_18
REMARK    6  A    between atoms: C_17  and  C_24
REMARK    7  A    between atoms: C_18  and  N_19
REMARK                            x       y       z     vdW  Elec       q    Type
REMARK                         _______ _______ _______ _____ _____    ______ ____
ROOT
ATOM      1  C   UNL     1       3.361   4.778  -9.051  0.00  0.00    +0.191 C 
ATOM      2  O   UNL     1       3.687   4.817 -10.527  0.00  0.00    -0.325 OA
ATOM      3  C   UNL     1       3.761   6.101 -10.875  0.00  0.00    +0.230 C 
ATOM      4  O   UNL     1       3.638   6.949  -9.805  0.00  0.00    -0.327 OA
ATOM      5  C   UNL     1       2.707   6.290  -9.052  0.00  0.00    +0.178 C 
ENDROOT
BRANCH   3   6
ATOM      6  C   UNL     1       5.121   6.358 -11.455  0.00  0.00    +0.041 A 
ATOM      7  C   UNL     1       5.649   5.559 -12.450  0.00  0.00    +0.059 A 
ATOM      8 CL   UNL     1       4.532   4.756 -13.531  0.00  0.00    -0.082 Cl
ATOM      9  C   UNL     1       7.019   5.461 -12.640  0.00  0.00    +0.023 A 
ATOM     10  C   UNL     1       7.825   6.154 -11.749  0.00  0.00    +0.058 A 
ATOM     11 CL   UNL     1       9.536   5.826 -11.806  0.00  0.00    -0.082 Cl
ATOM     12  C   UNL     1       7.287   7.273 -11.135  0.00  0.00    +0.011 A 
ATOM     13  C   UNL     1       5.909   7.432 -11.061  0.00  0.00    +0.002 A 
ENDBRANCH   3   6
BRANCH   1  14
ATOM     14  C   UNL     1       4.852   5.339  -8.624  0.00  0.00    +0.237 C 
BRANCH  14  15
ATOM     15  O   UNL     1       5.009   4.791  -7.332  0.00  0.00    -0.473 OA
BRANCH  15  19
ATOM     16  C   UNL     1       1.993   6.464  -5.200  0.00  0.00    +0.048 A 
ATOM     17  C   UNL     1       3.107   7.218  -5.494  0.00  0.00    +0.018 A 
ATOM     18  C   UNL     1       4.233   6.599  -6.020  0.00  0.00    +0.038 A 
ATOM     19  C   UNL     1       4.274   5.227  -6.225  0.00  0.00    +0.139 A 
ATOM     20  C   UNL     1       3.199   4.513  -5.723  0.00  0.00    +0.038 A 
ATOM     21  C   UNL     1       2.110   5.086  -5.125  0.00  0.00    +0.018 A 
BRANCH  16  27
ATOM     22  C   UNL     1      -3.618   6.168  -3.195  0.00  0.00    +0.095 C 
ATOM     23  C   UNL     1      -2.673   5.603  -3.038  0.00  0.00    +0.226 C 
ATOM     24  N   UNL     1      -1.435   5.967  -3.666  0.00  0.00    -0.276 N 
ATOM     25  C   UNL     1      -1.417   7.304  -4.255  0.00  0.00    +0.115 C 
ATOM     26  C   UNL     1      -0.139   7.609  -4.976  0.00  0.00    +0.112 C 
ATOM     27  N   UNL     1       1.032   7.052  -4.314  0.00  0.00    -0.304 N 
ATOM     28  C   UNL     1       0.839   6.324  -3.062  0.00  0.00    +0.112 C 
ATOM     29  C   UNL     1      -0.189   5.254  -3.387  0.00  0.00    +0.115 C 
ATOM     30  O   UNL     1      -2.629   4.589  -2.275  0.00  0.00    -0.275 OA
ENDBRANCH  16  27
ENDBRANCH  15  19
ENDBRANCH  14  15
ENDBRANCH   1  14
BRANCH   3  31
ATOM     31  C   UNL     1       2.791   6.560 -11.937  0.00  0.00    +0.168 C 
BRANCH  31  32
ATOM     32  N   UNL     1       1.435   6.178 -11.706  0.00  0.00    -0.302 N 
ATOM     33  C   UNL     1       0.361   6.807 -11.233  0.00  0.00    +0.179 A 
ATOM     34  N   UNL     1      -0.526   5.908 -10.765  0.00  0.00    -0.222 NA
ATOM     35  C   UNL     1      -0.165   4.722 -11.313  0.00  0.00    +0.119 A 
ATOM     36  C   UNL     1       0.956   4.971 -12.096  0.00  0.00    +0.098 A 
ENDBRANCH  31  32
ENDBRANCH   3  31
TORSDOF 7
ENDMDL
MODEL 4
REMARK VINA RESULT:      -8.7      2.366      9.085
REMARK  Name = 
REMARK  7 active torsions:
REMARK  status: ('A' for Active; 'I' for Inactive)
REMARK    1  A    between atoms: N_7  and  C_8
REMARK    2  A    between atoms: C_11  and  O_12
REMARK    3  A    between atoms: O_12  and  C_13
REMARK    4  A    between atoms: C_13  and  C_14
REMARK    5  A    between atoms: C_17  and  C_18
REMARK    6  A    between atoms: C_17  and  C_24
REMARK    7  A    between atoms: C_18  and  N_19
REMARK                            x       y       z     vdW  Elec       q    Type
REMARK                         _______ _______ _______ _____ _____    ______ ____
ROOT
ATOM      1  C   UNL     1       0.573   6.376  -1.865  0.00  0.00    +0.191 C 
ATOM      2  O   UNL     1       1.986   6.911  -1.862  0.00  0.00    -0.325 OA
ATOM      3  C   UNL     1       2.800   5.861  -1.755  0.00  0.00    +0.230 C 
ATOM      4  O   UNL     1       2.131   4.665  -1.796  0.00  0.00    -0.327 OA
ATOM      5  C   UNL     1       0.992   4.977  -1.105  0.00  0.00    +0.178 C 
ENDROOT
BRANCH   3   6
ATOM      6  C   UNL     1       3.729   5.858  -2.933  0.00  0.00    +0.041 A 
ATOM      7  C   UNL     1       4.079   7.023  -3.586  0.00  0.00    +0.059 A 
ATOM      8 CL   UNL     1       4.073   8.509  -2.662  0.00  0.00    -0.082 Cl
ATOM      9  C   UNL     1       4.501   7.008  -4.906  0.00  0.00    +0.023 A 
ATOM     10  C   UNL     1       4.496   5.779  -5.550  0.00  0.00    +0.058 A 
ATOM     11 CL   UNL     1       4.761   5.783  -7.272  0.00  0.00    -0.082 Cl
ATOM     12  C   UNL     1       4.626   4.645  -4.765  0.00  0.00    +0.011 A 
ATOM     13  C   UNL     1       4.324   4.697  -3.410  0.00  0.00    +0.002 A 
ENDBRANCH   3   6
BRANCH   1  14
ATOM     14  C   UNL     1       0.743   5.705  -3.362  0.00  0.00    +0.237 C 
BRANCH  14  15
ATOM     15  O   UNL     1       0.669   6.839  -4.199  0.00  0.00    -0.473 OA
BRANCH  15  19
ATOM     16  C   UNL     1       0.364   5.536  -8.026  0.00  0.00    +0.048 A 
ATOM     17  C   UNL     1       1.226   6.569  -7.735  0.00  0.00    +0.018 A 
ATOM     18  C   UNL     1       1.174   7.172  -6.485  0.00  0.00    +0.038 A 
ATOM     19  C   UNL     1       0.246   6.778  -5.530  0.00  0.00    +0.139 A 
ATOM     20  C   UNL     1      -0.712   5.877  -5.962  0.00  0.00    +0.038 A 
ATOM     21  C   UNL     1      -0.738   5.325  -7.214  0.00  0.00    +0.018 A 
BRANCH  16  27
ATOM     22  C   UNL     1       2.278   6.615 -13.572  0.00  0.00    +0.095 C 
ATOM     23  C   UNL     1       2.634   6.034 -12.694  0.00  0.00    +0.226 C 
ATOM     24  N   UNL     1       1.892   5.942 -11.468  0.00  0.00    -0.276 N 
ATOM     25  C   UNL     1       0.500   6.379 -11.561  0.00  0.00    +0.115 C 
ATOM     26  C   UNL     1      -0.211   6.351 -10.242  0.00  0.00    +0.112 C 
ATOM     27  N   UNL     1       0.179   5.221  -9.412  0.00  0.00    -0.304 N 
ATOM     28  C   UNL     1       1.148   4.268  -9.949  0.00  0.00    +0.112 C 
ATOM     29  C   UNL     1       2.345   5.113 -10.352  0.00  0.00    +0.115 C 
ATOM     30  O   UNL     1       3.734   5.401 -12.722  0.00  0.00    -0.275 OA
ENDBRANCH  16  27
ENDBRANCH  15  19
ENDBRANCH  14  15
ENDBRANCH   1  14
BRANCH   3  31
ATOM     31  C   UNL     1       3.703   5.839  -0.546  0.00  0.00    +0.168 C 
BRANCH  31  32
ATOM     32  N   UNL     1       3.629   7.008   0.271  0.00  0.00    -0.302 N 
ATOM     33  C   UNL     1       2.631   7.680   0.841  0.00  0.00    +0.179 A 
ATOM     34  N   UNL     1       3.017   8.947   1.090  0.00  0.00    -0.222 NA
ATOM     35  C   UNL     1       4.371   8.933   1.034  0.00  0.00    +0.119 A 
ATOM     36  C   UNL     1       4.742   7.625   0.737  0.00  0.00    +0.098 A 
ENDBRANCH  31  32
ENDBRANCH   3  31
TORSDOF 7
ENDMDL
MODEL 5
REMARK VINA RESULT:      -8.6      2.694      8.545
REMARK  Name = 
REMARK  7 active torsions:
REMARK  status: ('A' for Active; 'I' for Inactive)
REMARK    1  A    between atoms: N_7  and  C_8
REMARK    2  A    between atoms: C_11  and  O_12
REMARK    3  A    between atoms: O_12  and  C_13
REMARK    4  A    between atoms: C_13  and  C_14
REMARK    5  A    between atoms: C_17  and  C_18
REMARK    6  A    between atoms: C_17  and  C_24
REMARK    7  A    between atoms: C_18  and  N_19
REMARK                            x       y       z     vdW  Elec       q    Type
REMARK                         _______ _______ _______ _____ _____    ______ ____
ROOT
ATOM      1  C   UNL     1       1.800   4.818  -1.289  0.00  0.00    +0.191 C 
ATOM      2  O   UNL     1       0.449   4.571  -1.920  0.00  0.00    -0.325 OA
ATOM      3  C   UNL     1      -0.209   5.731  -1.898  0.00  0.00    +0.230 C 
ATOM      4  O   UNL     1       0.559   6.767  -1.433  0.00  0.00    -0.327 OA
ATOM      5  C   UNL     1       1.283   6.141  -0.456  0.00  0.00    +0.178 C 
ENDROOT
BRANCH   3   6
ATOM      6  C   UNL     1      -0.585   6.091  -3.304  0.00  0.00    +0.041 A 
ATOM      7  C   UNL     1      -1.665   5.510  -3.939  0.00  0.00    +0.059 A 
ATOM      8 CL   UNL     1      -2.993   4.953  -2.946  0.00  0.00    -0.082 Cl
ATOM      9  C   UNL     1      -1.734   5.443  -5.322  0.00  0.00    +0.023 A 
ATOM     10  C   UNL     1      -0.644   5.933  -6.027  0.00  0.00    +0.058 A 
ATOM     11 CL   UNL     1      -0.596   5.611  -7.739  0.00  0.00    -0.082 Cl
ATOM     12  C   UNL     1       0.129   6.906  -5.416  0.00  0.00    +0.011 A 
ATOM     13  C   UNL     1       0.097   7.056  -4.035  0.00  0.00    +0.002 A 
ENDBRANCH   3   6
BRANCH   1  14
ATOM     14  C   UNL     1       2.320   5.727  -2.563  0.00  0.00    +0.237 C 
BRANCH  14  15
ATOM     15  O   UNL     1       3.399   4.957  -3.047  0.00  0.00    -0.473 OA
BRANCH  15  19
ATOM     16  C   UNL     1       3.156   5.540  -7.052  0.00  0.00    +0.048 A 
ATOM     17  C   UNL     1       2.647   4.382  -6.510  0.00  0.00    +0.018 A 
ATOM     18  C   UNL     1       2.923   4.067  -5.186  0.00  0.00    +0.038 A 
ATOM     19  C   UNL     1       3.732   4.880  -4.404  0.00  0.00    +0.139 A 
ATOM     20  C   UNL     1       4.366   5.914  -5.070  0.00  0.00    +0.038 A 
ATOM     21  C   UNL     1       4.179   6.201  -6.395  0.00  0.00    +0.018 A 
BRANCH  16  27
ATOM     22  C   UNL     1       6.367   7.257 -11.778  0.00  0.00    +0.095 C 
ATOM     23  C   UNL     1       6.379   6.411 -11.058  0.00  0.00    +0.226 C 
ATOM     24  N   UNL     1       5.404   6.261 -10.015  0.00  0.00    -0.276 N 
ATOM     25  C   UNL     1       4.217   7.099 -10.162  0.00  0.00    +0.115 C 
ATOM     26  C   UNL     1       3.268   6.978  -9.008  0.00  0.00    +0.112 C 
ATOM     27  N   UNL     1       3.184   5.623  -8.483  0.00  0.00    -0.304 N 
ATOM     28  C   UNL     1       3.971   4.578  -9.134  0.00  0.00    +0.112 C 
ATOM     29  C   UNL     1       5.398   5.101  -9.125  0.00  0.00    +0.115 C 
ATOM     30  O   UNL     1       7.267   5.504 -11.119  0.00  0.00    -0.275 OA
ENDBRANCH  16  27
ENDBRANCH  15  19
ENDBRANCH  14  15
ENDBRANCH   1  14
BRANCH   3  31
ATOM     31  C   UNL     1      -1.508   5.744  -1.130  0.00  0.00    +0.168 C 
BRANCH  31  32
ATOM     32  N   UNL     1      -1.668   6.859  -0.253  0.00  0.00    -0.302 N 
ATOM     33  C   UNL     1      -1.800   8.172  -0.434  0.00  0.00    +0.179 A 
ATOM     34  N   UNL     1      -1.437   8.827   0.685  0.00  0.00    -0.222 NA
ATOM     35  C   UNL     1      -1.461   7.900   1.674  0.00  0.00    +0.119 A 
ATOM     36  C   UNL     1      -1.840   6.699   1.083  0.00  0.00    +0.098 A 
ENDBRANCH  31  32
ENDBRANCH   3  31
TORSDOF 7
ENDMDL
MODEL 6
REMARK VINA RESULT:      -8.5      3.381      9.495
REMARK  Name = 
REMARK  7 active torsions:
REMARK  status: ('A' for Active; 'I' for Inactive)
REMARK    1  A    between atoms: N_7  and  C_8
REMARK    2  A    between atoms: C_11  and  O_12
REMARK    3  A    between atoms: O_12  and  C_13
REMARK    4  A    between atoms: C_13  and  C_14
REMARK    5  A    between atoms: C_17  and  C_18
REMARK    6  A    between atoms: C_17  and  C_24
REMARK    7  A    between atoms: C_18  and  N_19
REMARK                            x       y       z     vdW  Elec       q    Type
REMARK                         _______ _______ _______ _____ _____    ______ ____
ROOT
ATOM      1  C   UNL     1       3.833   4.993  -4.877  0.00  0.00    +0.191 C 
ATOM      2  O   UNL     1       2.731   5.126  -3.850  0.00  0.00    -0.325 OA
ATOM      3  C   UNL     1       2.344   6.401  -3.858  0.00  0.00    +0.230 C 
ATOM      4  O   UNL     1       2.961   7.137  -4.835  0.00  0.00    -0.327 OA
ATOM      5  C   UNL     1       4.217   6.593  -4.822  0.00  0.00    +0.178 C 
ENDROOT
BRANCH   3   6
ATOM      6  C   UNL     1       0.877   6.450  -4.164  0.00  0.00    +0.041 A 
ATOM      7  C   UNL     1      -0.022   5.599  -3.553  0.00  0.00    +0.059 A 
ATOM      8 CL   UNL     1       0.372   5.008  -1.954  0.00  0.00    -0.082 Cl
ATOM      9  C   UNL     1      -1.235   5.288  -4.147  0.00  0.00    +0.023 A 
ATOM     10  C   UNL     1      -1.471   5.824  -5.405  0.00  0.00    +0.058 A 
ATOM     11 CL   UNL     1      -2.859   5.230  -6.275  0.00  0.00    -0.082 Cl
ATOM     12  C   UNL     1      -0.818   7.001  -5.732  0.00  0.00    +0.011 A 
ATOM     13  C   UNL     1       0.329   7.376  -5.044  0.00  0.00    +0.002 A 
ENDBRANCH   3   6
BRANCH   1  14
ATOM     14  C   UNL     1       2.794   5.205  -6.139  0.00  0.00    +0.237 C 
BRANCH  14  15
ATOM     15  O   UNL     1       3.545   4.698  -7.222  0.00  0.00    -0.473 OA
BRANCH  15  19
ATOM     16  C   UNL     1       6.115   5.761 -10.172  0.00  0.00    +0.048 A 
ATOM     17  C   UNL     1       6.615   5.228  -9.005  0.00  0.00    +0.018 A 
ATOM     18  C   UNL     1       5.776   5.073  -7.909  0.00  0.00    +0.038 A 
ATOM     19  C   UNL     1       4.448   5.476  -7.953  0.00  0.00    +0.139 A 
ATOM     20  C   UNL     1       4.073   6.181  -9.083  0.00  0.00    +0.038 A 
ATOM     21  C   UNL     1       4.899   6.423 -10.146  0.00  0.00    +0.018 A 
BRANCH  16  27
ATOM     22  C   UNL     1       7.270   6.638 -15.958  0.00  0.00    +0.095 C 
ATOM     23  C   UNL     1       6.636   7.116 -15.180  0.00  0.00    +0.226 C 
ATOM     24  N   UNL     1       6.611   6.670 -13.815  0.00  0.00    -0.276 N 
ATOM     25  C   UNL     1       7.704   5.775 -13.443  0.00  0.00    +0.115 C 
ATOM     26  C   UNL     1       7.589   5.264 -12.039  0.00  0.00    +0.112 C 
ATOM     27  N   UNL     1       7.072   6.262 -11.113  0.00  0.00    -0.304 N 
ATOM     28  C   UNL     1       6.771   7.595 -11.629  0.00  0.00    +0.112 C 
ATOM     29  C   UNL     1       5.824   7.360 -12.793  0.00  0.00    +0.115 C 
ATOM     30  O   UNL     1       5.888   8.105 -15.452  0.00  0.00    -0.275 OA
ENDBRANCH  16  27
ENDBRANCH  15  19
ENDBRANCH  14  15
ENDBRANCH   1  14
BRANCH   3  31
ATOM     31  C   UNL     1       2.496   7.151  -2.556  0.00  0.00    +0.168 C 
BRANCH  31  32
ATOM     32  N   UNL     1       3.518   6.645  -1.697  0.00  0.00    -0.302 N 
ATOM     33  C   UNL     1       3.761   5.459  -1.142  0.00  0.00    +0.179 A 
ATOM     34  N   UNL     1       4.546   5.614  -0.058  0.00  0.00    -0.222 NA
ATOM     35  C   UNL     1       5.102   6.844  -0.183  0.00  0.00    +0.119 A 
ATOM     36  C   UNL     1       4.603   7.386  -1.363  0.00  0.00    +0.098 A 
ENDBRANCH  31  32
ENDBRANCH   3  31
TORSDOF 7
ENDMDL
MODEL 7
REMARK VINA RESULT:      -8.4      2.777      9.094
REMARK  Name = 
REMARK  7 active torsions:
REMARK  status: ('A' for Active; 'I' for Inactive)
REMARK    1  A    between atoms: N_7  and  C_8
REMARK    2  A    between atoms: C_11  and  O_12
REMARK    3  A    between atoms: O_12  and  C_13
REMARK    4  A    between atoms: C_13  and  C_14
REMARK    5  A    between atoms: C_17  and  C_18
REMARK    6  A    between atoms: C_17  and  C_24
REMARK    7  A    between atoms: C_18  and  N_19
REMARK                            x       y       z     vdW  Elec       q    Type
REMARK                         _______ _______ _______ _____ _____    ______ ____
ROOT
ATOM      1  C   UNL     1      -1.253   6.464  -2.778  0.00  0.00    +0.191 C 
ATOM      2  O   UNL     1      -0.185   7.165  -1.970  0.00  0.00    -0.325 OA
ATOM      3  C   UNL     1       0.369   6.246  -1.179  0.00  0.00    +0.230 C 
ATOM      4  O   UNL     1      -0.106   4.983  -1.419  0.00  0.00    -0.327 OA
ATOM      5  C   UNL     1      -1.422   5.243  -1.687  0.00  0.00    +0.178 C 
ENDROOT
BRANCH   3   6
ATOM      6  C   UNL     1       1.841   6.198  -1.465  0.00  0.00    +0.041 A 
ATOM      7  C   UNL     1       2.652   7.302  -1.288  0.00  0.00    +0.059 A 
ATOM      8 CL   UNL     1       2.179   8.478  -0.083  0.00  0.00    -0.082 Cl
ATOM      9  C   UNL     1       3.845   7.435  -1.982  0.00  0.00    +0.023 A 
ATOM     10  C   UNL     1       4.149   6.439  -2.900  0.00  0.00    +0.058 A 
ATOM     11 CL   UNL     1       5.496   6.727  -3.967  0.00  0.00    -0.082 Cl
ATOM     12  C   UNL     1       3.606   5.183  -2.685  0.00  0.00    +0.011 A 
ATOM     13  C   UNL     1       2.482   5.038  -1.880  0.00  0.00    +0.002 A 
ENDBRANCH   3   6
BRANCH   1  14
ATOM     14  C   UNL     1      -0.147   5.623  -3.666  0.00  0.00    +0.237 C 
BRANCH  14  15
ATOM     15  O   UNL     1       0.287   6.599  -4.589  0.00  0.00    -0.473 OA
BRANCH  15  19
ATOM     16  C   UNL     1       2.089   5.617  -8.086  0.00  0.00    +0.048 A 
ATOM     17  C   UNL     1       1.970   4.663  -7.100  0.00  0.00    +0.018 A 
ATOM     18  C   UNL     1       1.566   5.042  -5.827  0.00  0.00    +0.038 A 
ATOM     19  C   UNL     1       1.309   6.370  -5.515  0.00  0.00    +0.139 A 
ATOM     20  C   UNL     1       1.641   7.290  -6.495  0.00  0.00    +0.038 A 
ATOM     21  C   UNL     1       2.119   6.955  -7.732  0.00  0.00    +0.018 A 
BRANCH  16  27
ATOM     22  C   UNL     1       7.218   6.565 -10.982  0.00  0.00    +0.095 C 
ATOM     23  C   UNL     1       6.893   6.011 -10.074  0.00  0.00    +0.226 C 
ATOM     24  N   UNL     1       5.523   5.945  -9.650  0.00  0.00    -0.276 N 
ATOM     25  C   UNL     1       4.551   6.366 -10.656  0.00  0.00    +0.115 C 
ATOM     26  C   UNL     1       3.142   6.367 -10.144  0.00  0.00    +0.112 C 
ATOM     27  N   UNL     1       2.869   5.263  -9.235  0.00  0.00    -0.304 N 
ATOM     28  C   UNL     1       3.940   4.306  -8.966  0.00  0.00    +0.112 C 
ATOM     29  C   UNL     1       5.110   5.151  -8.494  0.00  0.00    +0.115 C 
ATOM     30  O   UNL     1       7.727   5.387  -9.347  0.00  0.00    -0.275 OA
ENDBRANCH  16  27
ENDBRANCH  15  19
ENDBRANCH  14  15
ENDBRANCH   1  14
BRANCH   3  31
ATOM     31  C   UNL     1       0.268   6.499   0.306  0.00  0.00    +0.168 C 
BRANCH  31  32
ATOM     32  N   UNL     1      -0.890   7.231   0.705  0.00  0.00    -0.302 N 
ATOM     33  C   UNL     1      -1.354   8.452   0.442  0.00  0.00    +0.179 A 
ATOM     34  N   UNL     1      -2.203   8.837   1.413  0.00  0.00    -0.222 NA
ATOM     35  C   UNL     1      -2.560   7.700   2.058  0.00  0.00    +0.119 A 
ATOM     36  C   UNL     1      -1.882   6.659   1.432  0.00  0.00    +0.098 A 
ENDBRANCH  31  32
ENDBRANCH   3  31
TORSDOF 7
ENDMDL
MODEL 8
REMARK VINA RESULT:      -8.3      2.735      4.535
REMARK  Name = 
REMARK  7 active torsions:
REMARK  status: ('A' for Active; 'I' for Inactive)
REMARK    1  A    between atoms: N_7  and  C_8
REMARK    2  A    between atoms: C_11  and  O_12
REMARK    3  A    between atoms: O_12  and  C_13
REMARK    4  A    between atoms: C_13  and  C_14
REMARK    5  A    between atoms: C_17  and  C_18
REMARK    6  A    between atoms: C_17  and  C_24
REMARK    7  A    between atoms: C_18  and  N_19
REMARK                            x       y       z     vdW  Elec       q    Type
REMARK                         _______ _______ _______ _____ _____    ______ ____
ROOT
ATOM      1  C   UNL     1       3.802   6.133 -13.433  0.00  0.00    +0.191 C 
ATOM      2  O   UNL     1       2.377   6.630 -13.350  0.00  0.00    -0.325 OA
ATOM      3  C   UNL     1       1.586   5.563 -13.462  0.00  0.00    +0.230 C 
ATOM      4  O   UNL     1       2.286   4.385 -13.502  0.00  0.00    -0.327 OA
ATOM      5  C   UNL     1       3.383   4.755 -14.231  0.00  0.00    +0.178 C 
ENDROOT
BRANCH   3   6
ATOM      6  C   UNL     1       0.713   5.488 -12.245  0.00  0.00    +0.041 A 
ATOM      7  C   UNL     1       0.234   6.624 -11.623  0.00  0.00    +0.059 A 
ATOM      8 CL   UNL     1      -0.000   8.054 -12.603  0.00  0.00    -0.082 Cl
ATOM      9  C   UNL     1      -0.130   6.611 -10.285  0.00  0.00    +0.023 A 
ATOM     10  C   UNL     1       0.068   5.424  -9.595  0.00  0.00    +0.058 A 
ATOM     11 CL   UNL     1      -0.126   5.470  -7.864  0.00  0.00    -0.082 Cl
ATOM     12  C   UNL     1       0.064   4.249 -10.328  0.00  0.00    +0.011 A 
ATOM     13  C   UNL     1       0.301   4.280 -11.696  0.00  0.00    +0.002 A 
ENDBRANCH   3   6
BRANCH   1  14
ATOM     14  C   UNL     1       3.719   5.398 -11.959  0.00  0.00    +0.237 C 
BRANCH  14  15
ATOM     15  O   UNL     1       3.537   6.500 -11.096  0.00  0.00    -0.473 OA
BRANCH  15  19
ATOM     16  C   UNL     1       3.732   5.694  -7.127  0.00  0.00    +0.048 A 
ATOM     17  C   UNL     1       3.123   6.855  -7.548  0.00  0.00    +0.018 A 
ATOM     18  C   UNL     1       3.248   7.252  -8.872  0.00  0.00    +0.038 A 
ATOM     19  C   UNL     1       4.004   6.520  -9.778  0.00  0.00    +0.139 A 
ATOM     20  C   UNL     1       4.745   5.482  -9.239  0.00  0.00    +0.038 A 
ATOM     21  C   UNL     1       4.707   5.116  -7.921  0.00  0.00    +0.018 A 
BRANCH  16  27
ATOM     22  C   UNL     1       1.232   6.498  -1.770  0.00  0.00    +0.095 C 
ATOM     23  C   UNL     1       1.120   5.784  -2.614  0.00  0.00    +0.226 C 
ATOM     24  N   UNL     1       1.934   5.841  -3.796  0.00  0.00    -0.276 N 
ATOM     25  C   UNL     1       3.126   6.677  -3.678  0.00  0.00    +0.115 C 
ATOM     26  C   UNL     1       3.897   6.780  -4.959  0.00  0.00    +0.112 C 
ATOM     27  N   UNL     1       3.911   5.535  -5.714  0.00  0.00    -0.304 N 
ATOM     28  C   UNL     1       3.232   4.373  -5.145  0.00  0.00    +0.112 C 
ATOM     29  C   UNL     1       1.817   4.847  -4.862  0.00  0.00    +0.115 C 
ATOM     30  O   UNL     1       0.255   4.854  -2.583  0.00  0.00    -0.275 OA
ENDBRANCH  16  27
ENDBRANCH  15  19
ENDBRANCH  14  15
ENDBRANCH   1  14
BRANCH   3  31
ATOM     31  C   UNL     1       0.628   5.565 -14.629  0.00  0.00    +0.168 C 
BRANCH  31  32
ATOM     32  N   UNL     1       0.712   6.721 -15.463  0.00  0.00    -0.302 N 
ATOM     33  C   UNL     1       1.693   7.559 -15.793  0.00  0.00    +0.179 A 
ATOM     34  N   UNL     1       1.173   8.733 -16.203  0.00  0.00    -0.222 NA
ATOM     35  C   UNL     1      -0.124   8.473 -16.498  0.00  0.00    +0.119 A 
ATOM     36  C   UNL     1      -0.328   7.123 -16.235  0.00  0.00    +0.098 A 
ENDBRANCH  31  32
ENDBRANCH   3  31
TORSDOF 7
ENDMDL
MODEL 9
REMARK VINA RESULT:      -8.1      2.252      8.499
REMARK  Name = 
REMARK  7 active torsions:
REMARK  status: ('A' for Active; 'I' for Inactive)
REMARK    1  A    between atoms: N_7  and  C_8
REMARK    2  A    between atoms: C_11  and  O_12
REMARK    3  A    between atoms: O_12  and  C_13
REMARK    4  A    between atoms: C_13  and  C_14
REMARK    5  A    between atoms: C_17  and  C_18
REMARK    6  A    between atoms: C_17  and  C_24
REMARK    7  A    between atoms: C_18  and  N_19
REMARK                            x       y       z     vdW  Elec       q    Type
REMARK                         _______ _______ _______ _____ _____    ______ ____
ROOT
ATOM      1  C   UNL     1       1.697   4.742  -1.210  0.00  0.00    +0.191 C 
ATOM      2  O   UNL     1       0.333   4.539  -1.829  0.00  0.00    -0.325 OA
ATOM      3  C   UNL     1      -0.279   5.723  -1.819  0.00  0.00    +0.230 C 
ATOM      4  O   UNL     1       0.531   6.735  -1.374  0.00  0.00    -0.327 OA
ATOM      5  C   UNL     1       1.237   6.096  -0.392  0.00  0.00    +0.178 C 
ENDROOT
BRANCH   3   6
ATOM      6  C   UNL     1      -0.651   6.077  -3.228  0.00  0.00    +0.041 A 
ATOM      7  C   UNL     1      -1.766   5.542  -3.842  0.00  0.00    +0.059 A 
ATOM      8 CL   UNL     1      -3.112   5.075  -2.826  0.00  0.00    -0.082 Cl
ATOM      9  C   UNL     1      -1.853   5.454  -5.223  0.00  0.00    +0.023 A 
ATOM     10  C   UNL     1      -0.746   5.872  -5.947  0.00  0.00    +0.058 A 
ATOM     11 CL   UNL     1      -0.733   5.518  -7.653  0.00  0.00    -0.082 Cl
ATOM     12  C   UNL     1       0.083   6.814  -5.361  0.00  0.00    +0.011 A 
ATOM     13  C   UNL     1       0.074   6.991  -3.983  0.00  0.00    +0.002 A 
ENDBRANCH   3   6
BRANCH   1  14
ATOM     14  C   UNL     1       2.243   5.612  -2.499  0.00  0.00    +0.237 C 
BRANCH  14  15
ATOM     15  O   UNL     1       2.510   4.596  -3.443  0.00  0.00    -0.473 OA
BRANCH  15  19
ATOM     16  C   UNL     1       3.291   6.010  -7.161  0.00  0.00    +0.048 A 
ATOM     17  C   UNL     1       2.780   4.740  -7.019  0.00  0.00    +0.018 A 
ATOM     18  C   UNL     1       2.723   4.162  -5.757  0.00  0.00    +0.038 A 
ATOM     19  C   UNL     1       3.201   4.827  -4.636  0.00  0.00    +0.139 A 
ATOM     20  C   UNL     1       3.877   6.010  -4.883  0.00  0.00    +0.038 A 
ATOM     21  C   UNL     1       4.023   6.565  -6.125  0.00  0.00    +0.018 A 
BRANCH  16  27
ATOM     22  C   UNL     1       2.103   5.477 -12.983  0.00  0.00    +0.095 C 
ATOM     23  C   UNL     1       1.672   6.026 -12.119  0.00  0.00    +0.226 C 
ATOM     24  N   UNL     1       2.239   5.971 -10.800  0.00  0.00    -0.276 N 
ATOM     25  C   UNL     1       3.591   5.420 -10.738  0.00  0.00    +0.115 C 
ATOM     26  C   UNL     1       4.108   5.297  -9.336  0.00  0.00    +0.112 C 
ATOM     27  N   UNL     1       3.693   6.400  -8.481  0.00  0.00    -0.304 N 
ATOM     28  C   UNL     1       2.887   7.468  -9.068  0.00  0.00    +0.112 C 
ATOM     29  C   UNL     1       1.698   6.760  -9.694  0.00  0.00    +0.115 C 
ATOM     30  O   UNL     1       0.640   6.755 -12.246  0.00  0.00    -0.275 OA
ENDBRANCH  16  27
ENDBRANCH  15  19
ENDBRANCH  14  15
ENDBRANCH   1  14
BRANCH   3  31
ATOM     31  C   UNL     1      -1.572   5.797  -1.044  0.00  0.00    +0.168 C 
BRANCH  31  32
ATOM     32  N   UNL     1      -1.674   6.920  -0.167  0.00  0.00    -0.302 N 
ATOM     33  C   UNL     1      -1.753   8.237  -0.350  0.00  0.00    +0.179 A 
ATOM     34  N   UNL     1      -1.350   8.878   0.764  0.00  0.00    -0.222 NA
ATOM     35  C   UNL     1      -1.402   7.955   1.755  0.00  0.00    +0.119 A 
ATOM     36  C   UNL     1      -1.838   6.770   1.170  0.00  0.00    +0.098 A 
ENDBRANCH  31  32
ENDBRANCH   3  31
TORSDOF 7
ENDMDL
