MODEL 1
REMARK VINA RESULT:      -7.9      0.000      0.000
REMARK  Name = 
REMARK  5 active torsions:
REMARK  status: ('A' for Active; 'I' for Inactive)
REMARK    1  A    between atoms: O_2  and  C_3
REMARK    2  A    between atoms: C_8  and  S_9
REMARK    3  A    between atoms: S_9  and  C_11
REMARK    4  A    between atoms: C_11  and  C_12
REMARK    5  A    between atoms: C_17  and  O_18
REMARK                            x       y       z     vdW  Elec       q    Type
REMARK                         _______ _______ _______ _____ _____    ______ ____
ROOT
ATOM      1  S   UNL     1       2.675   4.463  -7.615  0.00  0.00    +0.107 S 
ATOM      2  O   UNL     1       2.302   3.640  -8.888  0.00  0.00    -0.248 OA
ENDROOT
BRANCH   1   8
ATOM      3  C   UNL     1       7.488   6.020 -11.049  0.00  0.00    +0.140 A 
ATOM      4  C   UNL     1       7.226   5.550  -9.793  0.00  0.00    +0.058 A 
ATOM      5  C   UNL     1       6.021   5.830  -9.207  0.00  0.00    +0.104 A 
ATOM      6  C   UNL     1       5.043   6.531  -9.889  0.00  0.00    +0.101 A 
ATOM      7  N   UNL     1       3.914   6.419  -9.176  0.00  0.00    -0.218 NA
ATOM      8  C   UNL     1       4.065   5.418  -8.272  0.00  0.00    +0.221 A 
ATOM      9  C   UNL     1       5.437   7.209 -11.033  0.00  0.00    +0.024 A 
ATOM     10  N   UNL     1       5.362   5.160  -8.238  0.00  0.00    -0.218 NA
ATOM     11  C   UNL     1       6.565   6.787 -11.709  0.00  0.00    +0.039 A 
BRANCH   3  13
ATOM     12  C   UNL     1       9.068   5.863 -12.295  0.00  0.00    +0.252 C 
ATOM     13  O   UNL     1       8.719   5.804 -11.685  0.00  0.00    -0.471 OA
ENDBRANCH   3  13
ENDBRANCH   1   8
BRANCH   1  14
ATOM     14  C   UNL     1       1.300   5.689  -7.642  0.00  0.00    +0.145 C 
BRANCH  14  15
ATOM     15  C   UNL     1       0.959   6.091  -6.249  0.00  0.00    +0.072 A 
ATOM     16  C   UNL     1      -0.324   5.763  -5.826  0.00  0.00    +0.026 A 
ATOM     17  C   UNL     1      -1.367   5.416  -6.830  0.00  0.00    +0.035 C 
ATOM     18  C   UNL     1      -0.660   5.644  -4.495  0.00  0.00    +0.133 A 
ATOM     19  C   UNL     1       0.346   5.581  -3.559  0.00  0.00    +0.031 A 
ATOM     20  C   UNL     1       0.078   5.159  -2.151  0.00  0.00    +0.036 C 
ATOM     21  C   UNL     1       1.643   5.631  -4.030  0.00  0.00    +0.097 A 
ATOM     22  N   UNL     1       1.923   5.962  -5.305  0.00  0.00    -0.248 NA
BRANCH  18  23
ATOM     23  O   UNL     1      -1.964   5.410  -4.111  0.00  0.00    -0.472 OA
ATOM     24  C   UNL     1      -2.763   6.491  -3.679  0.00  0.00    +0.252 C 
ENDBRANCH  18  23
ENDBRANCH  14  15
ENDBRANCH   1  14
TORSDOF 5
ENDMDL
MODEL 2
REMARK VINA RESULT:      -7.9      1.341      1.693
REMARK  Name = 
REMARK  5 active torsions:
REMARK  status: ('A' for Active; 'I' for Inactive)
REMARK    1  A    between atoms: O_2  and  C_3
REMARK    2  A    between atoms: C_8  and  S_9
REMARK    3  A    between atoms: S_9  and  C_11
REMARK    4  A    between atoms: C_11  and  C_12
REMARK    5  A    between atoms: C_17  and  O_18
REMARK                            x       y       z     vdW  Elec       q    Type
REMARK                         _______ _______ _______ _____ _____    ______ ____
ROOT
ATOM      1  S   UNL     1       1.327   6.535  -9.284  0.00  0.00    +0.107 S 
ATOM      2  O   UNL     1       1.794   7.587  -8.229  0.00  0.00    -0.248 OA
ENDROOT
BRANCH   1   8
ATOM      3  C   UNL     1       7.138   5.974 -11.103  0.00  0.00    +0.140 A 
ATOM      4  C   UNL     1       5.880   5.736 -11.581  0.00  0.00    +0.058 A 
ATOM      5  C   UNL     1       4.862   5.485 -10.701  0.00  0.00    +0.104 A 
ATOM      6  C   UNL     1       5.074   5.528  -9.334  0.00  0.00    +0.101 A 
ATOM      7  N   UNL     1       3.868   5.506  -8.751  0.00  0.00    -0.218 NA
ATOM      8  C   UNL     1       2.924   5.785  -9.686  0.00  0.00    +0.221 A 
ATOM      9  C   UNL     1       6.392   5.507  -8.902  0.00  0.00    +0.024 A 
ATOM     10  N   UNL     1       3.532   5.660 -10.855  0.00  0.00    -0.218 NA
ATOM     11  C   UNL     1       7.387   5.938  -9.756  0.00  0.00    +0.039 A 
BRANCH   3  13
ATOM     12  C   UNL     1       8.700   5.881 -12.378  0.00  0.00    +0.252 C 
ATOM     13  O   UNL     1       8.230   6.194 -11.954  0.00  0.00    -0.471 OA
ENDBRANCH   3  13
ENDBRANCH   1   8
BRANCH   1  14
ATOM     14  C   UNL     1       0.576   5.292  -8.151  0.00  0.00    +0.145 C 
BRANCH  14  15
ATOM     15  C   UNL     1       0.633   5.793  -6.750  0.00  0.00    +0.072 A 
ATOM     16  C   UNL     1      -0.566   5.754  -6.049  0.00  0.00    +0.026 A 
ATOM     17  C   UNL     1      -1.850   5.609  -6.788  0.00  0.00    +0.035 C 
ATOM     18  C   UNL     1      -0.622   5.744  -4.671  0.00  0.00    +0.133 A 
ATOM     19  C   UNL     1       0.528   5.495  -3.961  0.00  0.00    +0.031 A 
ATOM     20  C   UNL     1       0.493   5.177  -2.503  0.00  0.00    +0.036 C 
ATOM     21  C   UNL     1       1.675   5.259  -4.693  0.00  0.00    +0.097 A 
ATOM     22  N   UNL     1       1.733   5.490  -6.018  0.00  0.00    -0.248 NA
BRANCH  18  23
ATOM     23  O   UNL     1      -1.832   5.800  -4.011  0.00  0.00    -0.472 OA
ATOM     24  C   UNL     1      -2.327   7.049  -3.577  0.00  0.00    +0.252 C 
ENDBRANCH  18  23
ENDBRANCH  14  15
ENDBRANCH   1  14
TORSDOF 5
ENDMDL
MODEL 3
REMARK VINA RESULT:      -7.8      2.763      8.252
REMARK  Name = 
REMARK  5 active torsions:
REMARK  status: ('A' for Active; 'I' for Inactive)
REMARK    1  A    between atoms: O_2  and  C_3
REMARK    2  A    between atoms: C_8  and  S_9
REMARK    3  A    between atoms: S_9  and  C_11
REMARK    4  A    between atoms: C_11  and  C_12
REMARK    5  A    between atoms: C_17  and  O_18
REMARK                            x       y       z     vdW  Elec       q    Type
REMARK                         _______ _______ _______ _____ _____    ______ ____
ROOT
ATOM      1  S   UNL     1       2.689   5.100  -9.132  0.00  0.00    +0.107 S 
ATOM      2  O   UNL     1       3.693   3.912  -8.994  0.00  0.00    -0.248 OA
ENDROOT
BRANCH   1   8
ATOM      3  C   UNL     1       4.054   5.553  -3.189  0.00  0.00    +0.140 A 
ATOM      4  C   UNL     1       3.046   5.082  -3.982  0.00  0.00    +0.058 A 
ATOM      5  C   UNL     1       2.852   5.632  -5.221  0.00  0.00    +0.104 A 
ATOM      6  C   UNL     1       3.697   6.615  -5.705  0.00  0.00    +0.101 A 
ATOM      7  N   UNL     1       3.423   6.759  -7.008  0.00  0.00    -0.218 NA
ATOM      8  C   UNL     1       2.691   5.693  -7.422  0.00  0.00    +0.221 A 
ATOM      9  C   UNL     1       4.524   7.242  -4.784  0.00  0.00    +0.024 A 
ATOM     10  N   UNL     1       2.274   5.096  -6.317  0.00  0.00    -0.218 NA
ATOM     11  C   UNL     1       4.849   6.583  -3.615  0.00  0.00    +0.039 A 
BRANCH   3  13
ATOM     12  C   UNL     1       3.998   5.001  -1.248  0.00  0.00    +0.252 C 
ATOM     13  O   UNL     1       4.275   5.062  -1.894  0.00  0.00    -0.471 OA
ENDBRANCH   3  13
ENDBRANCH   1   8
BRANCH   1  14
ATOM     14  C   UNL     1       3.784   6.316  -9.977  0.00  0.00    +0.145 C 
BRANCH  14  15
ATOM     15  C   UNL     1       5.068   5.659 -10.350  0.00  0.00    +0.072 A 
ATOM     16  C   UNL     1       5.275   5.476 -11.712  0.00  0.00    +0.026 A 
ATOM     17  C   UNL     1       4.125   5.562 -12.653  0.00  0.00    +0.035 C 
ATOM     18  C   UNL     1       6.531   5.313 -12.258  0.00  0.00    +0.133 A 
ATOM     19  C   UNL     1       7.632   5.605 -11.488  0.00  0.00    +0.031 A 
ATOM     20  C   UNL     1       8.993   5.740 -12.089  0.00  0.00    +0.036 C 
ATOM     21  C   UNL     1       7.396   6.057 -10.205  0.00  0.00    +0.097 A 
ATOM     22  N   UNL     1       6.175   5.996  -9.643  0.00  0.00    -0.248 NA
BRANCH  18  23
ATOM     23  O   UNL     1       6.690   5.041 -13.601  0.00  0.00    -0.472 OA
ATOM     24  C   UNL     1       6.794   6.110 -14.516  0.00  0.00    +0.252 C 
ENDBRANCH  18  23
ENDBRANCH  14  15
ENDBRANCH   1  14
TORSDOF 5
ENDMDL
MODEL 4
REMARK VINA RESULT:      -7.8      1.696      8.855
REMARK  Name = 
REMARK  5 active torsions:
REMARK  status: ('A' for Active; 'I' for Inactive)
REMARK    1  A    between atoms: O_2  and  C_3
REMARK    2  A    between atoms: C_8  and  S_9
REMARK    3  A    between atoms: S_9  and  C_11
REMARK    4  A    between atoms: C_11  and  C_12
REMARK    5  A    between atoms: C_17  and  O_18
REMARK                            x       y       z     vdW  Elec       q    Type
REMARK                         _______ _______ _______ _____ _____    ______ ____
ROOT
ATOM      1  S   UNL     1       3.057   5.608  -7.083  0.00  0.00    +0.107 S 
ATOM      2  O   UNL     1       2.788   7.068  -7.567  0.00  0.00    -0.248 OA
ENDROOT
BRANCH   1   8
ATOM      3  C   UNL     1      -2.152   6.392  -3.977  0.00  0.00    +0.140 A 
ATOM      4  C   UNL     1      -0.915   5.841  -3.794  0.00  0.00    +0.058 A 
ATOM      5  C   UNL     1      -0.213   5.386  -4.878  0.00  0.00    +0.104 A 
ATOM      6  C   UNL     1      -0.712   5.529  -6.160  0.00  0.00    +0.101 A 
ATOM      7  N   UNL     1       0.289   5.240  -7.003  0.00  0.00    -0.218 NA
ATOM      8  C   UNL     1       1.458   5.249  -6.313  0.00  0.00    +0.221 A 
ATOM      9  C   UNL     1      -2.058   5.841  -6.281  0.00  0.00    +0.024 A 
ATOM     10  N   UNL     1       1.119   5.230  -5.034  0.00  0.00    -0.218 NA
ATOM     11  C   UNL     1      -2.700   6.467  -5.230  0.00  0.00    +0.039 A 
BRANCH   3  13
ATOM     12  C   UNL     1      -3.393   6.635  -2.404  0.00  0.00    +0.252 C 
ATOM     13  O   UNL     1      -2.937   6.836  -2.904  0.00  0.00    -0.471 OA
ENDBRANCH   3  13
ENDBRANCH   1   8
BRANCH   1  14
ATOM     14  C   UNL     1       2.927   4.732  -8.698  0.00  0.00    +0.145 C 
BRANCH  14  15
ATOM     15  C   UNL     1       4.247   4.753  -9.387  0.00  0.00    +0.072 A 
ATOM     16  C   UNL     1       4.277   5.419 -10.607  0.00  0.00    +0.026 A 
ATOM     17  C   UNL     1       3.005   5.710 -11.321  0.00  0.00    +0.035 C 
ATOM     18  C   UNL     1       5.440   5.919 -11.152  0.00  0.00    +0.133 A 
ATOM     19  C   UNL     1       6.561   6.009 -10.359  0.00  0.00    +0.031 A 
ATOM     20  C   UNL     1       7.754   6.802 -10.780  0.00  0.00    +0.036 C 
ATOM     21  C   UNL     1       6.434   5.592  -9.049  0.00  0.00    +0.097 A 
ATOM     22  N   UNL     1       5.354   4.914  -8.620  0.00  0.00    -0.248 NA
BRANCH  18  23
ATOM     23  O   UNL     1       5.446   6.491 -12.408  0.00  0.00    -0.472 OA
ATOM     24  C   UNL     1       5.763   5.694 -13.529  0.00  0.00    +0.252 C 
ENDBRANCH  18  23
ENDBRANCH  14  15
ENDBRANCH   1  14
TORSDOF 5
ENDMDL
MODEL 5
REMARK VINA RESULT:      -7.6      1.749      2.551
REMARK  Name = 
REMARK  5 active torsions:
REMARK  status: ('A' for Active; 'I' for Inactive)
REMARK    1  A    between atoms: O_2  and  C_3
REMARK    2  A    between atoms: C_8  and  S_9
REMARK    3  A    between atoms: S_9  and  C_11
REMARK    4  A    between atoms: C_11  and  C_12
REMARK    5  A    between atoms: C_17  and  O_18
REMARK                            x       y       z     vdW  Elec       q    Type
REMARK                         _______ _______ _______ _____ _____    ______ ____
ROOT
ATOM      1  S   UNL     1       1.601   6.781  -7.833  0.00  0.00    +0.107 S 
ATOM      2  O   UNL     1       2.163   8.236  -7.898  0.00  0.00    -0.248 OA
ENDROOT
BRANCH   1   8
ATOM      3  C   UNL     1       6.506   5.675 -11.312  0.00  0.00    +0.140 A 
ATOM      4  C   UNL     1       5.157   5.460 -11.334  0.00  0.00    +0.058 A 
ATOM      5  C   UNL     1       4.471   5.371 -10.152  0.00  0.00    +0.104 A 
ATOM      6  C   UNL     1       5.112   5.554  -8.940  0.00  0.00    +0.101 A 
ATOM      7  N   UNL     1       4.157   5.669  -8.007  0.00  0.00    -0.218 NA
ATOM      8  C   UNL     1       2.969   5.897  -8.623  0.00  0.00    +0.221 A 
ATOM      9  C   UNL     1       6.498   5.503  -8.948  0.00  0.00    +0.024 A 
ATOM     10  N   UNL     1       3.166   5.605  -9.898  0.00  0.00    -0.218 NA
ATOM     11  C   UNL     1       7.174   5.776 -10.121  0.00  0.00    +0.039 A 
BRANCH   3  13
ATOM     12  C   UNL     1       7.909   5.610 -12.763  0.00  0.00    +0.252 C 
ATOM     13  O   UNL     1       7.271   5.733 -12.486  0.00  0.00    -0.471 OA
ENDBRANCH   3  13
ENDBRANCH   1   8
BRANCH   1  14
ATOM     14  C   UNL     1       1.881   6.435  -6.046  0.00  0.00    +0.145 C 
BRANCH  14  15
ATOM     15  C   UNL     1       0.701   5.722  -5.482  0.00  0.00    +0.072 A 
ATOM     16  C   UNL     1       0.738   5.490  -4.112  0.00  0.00    +0.026 A 
ATOM     17  C   UNL     1       2.030   5.587  -3.380  0.00  0.00    +0.035 C 
ATOM     18  C   UNL     1      -0.399   5.266  -3.366  0.00  0.00    +0.133 A 
ATOM     19  C   UNL     1      -1.625   5.543  -3.924  0.00  0.00    +0.031 A 
ATOM     20  C   UNL     1      -2.864   5.611  -3.093  0.00  0.00    +0.036 C 
ATOM     21  C   UNL     1      -1.628   6.042  -5.211  0.00  0.00    +0.097 A 
ATOM     22  N   UNL     1      -0.520   6.042  -5.976  0.00  0.00    -0.248 NA
BRANCH  18  23
ATOM     23  O   UNL     1      -0.316   4.946  -2.026  0.00  0.00    -0.472 OA
ATOM     24  C   UNL     1      -0.288   5.982  -1.068  0.00  0.00    +0.252 C 
ENDBRANCH  18  23
ENDBRANCH  14  15
ENDBRANCH   1  14
TORSDOF 5
ENDMDL
MODEL 6
REMARK VINA RESULT:      -7.5      1.565      8.982
REMARK  Name = 
REMARK  5 active torsions:
REMARK  status: ('A' for Active; 'I' for Inactive)
REMARK    1  A    between atoms: O_2  and  C_3
REMARK    2  A    between atoms: C_8  and  S_9
REMARK    3  A    between atoms: S_9  and  C_11
REMARK    4  A    between atoms: C_11  and  C_12
REMARK    5  A    between atoms: C_17  and  O_18
REMARK                            x       y       z     vdW  Elec       q    Type
REMARK                         _______ _______ _______ _____ _____    ______ ____
ROOT
ATOM      1  S   UNL     1       2.539   4.831  -9.497  0.00  0.00    +0.107 S 
ATOM      2  O   UNL     1       3.589   3.886  -8.831  0.00  0.00    -0.248 OA
ENDROOT
BRANCH   1   8
ATOM      3  C   UNL     1      -0.876   5.611  -4.486  0.00  0.00    +0.140 A 
ATOM      4  C   UNL     1      -0.844   6.026  -5.787  0.00  0.00    +0.058 A 
ATOM      5  C   UNL     1       0.353   6.071  -6.450  0.00  0.00    +0.104 A 
ATOM      6  C   UNL     1       1.521   5.646  -5.843  0.00  0.00    +0.101 A 
ATOM      7  N   UNL     1       2.451   5.560  -6.803  0.00  0.00    -0.218 NA
ATOM      8  C   UNL     1       1.836   5.591  -8.013  0.00  0.00    +0.221 A 
ATOM      9  C   UNL     1       1.492   5.489  -4.465  0.00  0.00    +0.024 A 
ATOM     10  N   UNL     1       0.602   6.005  -7.776  0.00  0.00    -0.218 NA
ATOM     11  C   UNL     1       0.281   5.265  -3.839  0.00  0.00    +0.039 A 
BRANCH   3  13
ATOM     12  C   UNL     1      -2.736   5.372  -3.739  0.00  0.00    +0.252 C 
ATOM     13  O   UNL     1      -2.062   5.585  -3.740  0.00  0.00    -0.471 OA
ENDBRANCH   3  13
ENDBRANCH   1   8
BRANCH   1  14
ATOM     14  C   UNL     1       3.674   6.142 -10.118  0.00  0.00    +0.145 C 
BRANCH  14  15
ATOM     15  C   UNL     1       4.988   5.539 -10.477  0.00  0.00    +0.072 A 
ATOM     16  C   UNL     1       5.236   5.407 -11.838  0.00  0.00    +0.026 A 
ATOM     17  C   UNL     1       4.108   5.487 -12.806  0.00  0.00    +0.035 C 
ATOM     18  C   UNL     1       6.510   5.303 -12.355  0.00  0.00    +0.133 A 
ATOM     19  C   UNL     1       7.581   5.604 -11.547  0.00  0.00    +0.031 A 
ATOM     20  C   UNL     1       8.951   5.802 -12.107  0.00  0.00    +0.036 C 
ATOM     21  C   UNL     1       7.297   6.007 -10.257  0.00  0.00    +0.097 A 
ATOM     22  N   UNL     1       6.064   5.888  -9.730  0.00  0.00    -0.248 NA
BRANCH  18  23
ATOM     23  O   UNL     1       6.713   5.078 -13.701  0.00  0.00    -0.472 OA
ATOM     24  C   UNL     1       6.797   6.179 -14.580  0.00  0.00    +0.252 C 
ENDBRANCH  18  23
ENDBRANCH  14  15
ENDBRANCH   1  14
TORSDOF 5
ENDMDL
MODEL 7
REMARK VINA RESULT:      -7.5      1.838      8.856
REMARK  Name = 
REMARK  5 active torsions:
REMARK  status: ('A' for Active; 'I' for Inactive)
REMARK    1  A    between atoms: O_2  and  C_3
REMARK    2  A    between atoms: C_8  and  S_9
REMARK    3  A    between atoms: S_9  and  C_11
REMARK    4  A    between atoms: C_11  and  C_12
REMARK    5  A    between atoms: C_17  and  O_18
REMARK                            x       y       z     vdW  Elec       q    Type
REMARK                         _______ _______ _______ _____ _____    ______ ____
ROOT
ATOM      1  S   UNL     1       3.386   6.496  -6.478  0.00  0.00    +0.107 S 
ATOM      2  O   UNL     1       2.845   7.642  -7.390  0.00  0.00    -0.248 OA
ENDROOT
BRANCH   1   8
ATOM      3  C   UNL     1      -2.308   6.073  -4.290  0.00  0.00    +0.140 A 
ATOM      4  C   UNL     1      -1.025   5.863  -3.872  0.00  0.00    +0.058 A 
ATOM      5  C   UNL     1      -0.059   5.552  -4.791  0.00  0.00    +0.104 A 
ATOM      6  C   UNL     1      -0.351   5.506  -6.143  0.00  0.00    +0.101 A 
ATOM      7  N   UNL     1       0.819   5.442  -6.793  0.00  0.00    -0.218 NA
ATOM      8  C   UNL     1       1.815   5.779  -5.934  0.00  0.00    +0.221 A 
ATOM      9  C   UNL     1      -1.692   5.460  -6.495  0.00  0.00    +0.024 A 
ATOM     10  N   UNL     1       1.277   5.733  -4.727  0.00  0.00    -0.218 NA
ATOM     11  C   UNL     1      -2.636   5.950  -5.614  0.00  0.00    +0.039 A 
BRANCH   3  13
ATOM     12  C   UNL     1      -3.589   6.239  -2.738  0.00  0.00    +0.252 C 
ATOM     13  O   UNL     1      -3.349   6.351  -3.393  0.00  0.00    -0.471 OA
ENDBRANCH   3  13
ENDBRANCH   1   8
BRANCH   1  14
ATOM     14  C   UNL     1       3.935   5.315  -7.780  0.00  0.00    +0.145 C 
BRANCH  14  15
ATOM     15  C   UNL     1       3.795   5.948  -9.121  0.00  0.00    +0.072 A 
ATOM     16  C   UNL     1       4.940   5.948  -9.908  0.00  0.00    +0.026 A 
ATOM     17  C   UNL     1       6.268   5.703  -9.281  0.00  0.00    +0.035 C 
ATOM     18  C   UNL     1       4.899   6.067 -11.281  0.00  0.00    +0.133 A 
ATOM     19  C   UNL     1       3.694   5.913 -11.925  0.00  0.00    +0.031 A 
ATOM     20  C   UNL     1       3.617   5.733 -13.406  0.00  0.00    +0.036 C 
ATOM     21  C   UNL     1       2.595   5.635 -11.137  0.00  0.00    +0.097 A 
ATOM     22  N   UNL     1       2.637   5.741  -9.796  0.00  0.00    -0.248 NA
BRANCH  18  23
ATOM     23  O   UNL     1       6.061   6.156 -12.020  0.00  0.00    -0.472 OA
ATOM     24  C   UNL     1       6.624   7.426 -12.272  0.00  0.00    +0.252 C 
ENDBRANCH  18  23
ENDBRANCH  14  15
ENDBRANCH   1  14
TORSDOF 5
ENDMDL
MODEL 8
REMARK VINA RESULT:      -7.4      1.937      2.858
REMARK  Name = 
REMARK  5 active torsions:
REMARK  status: ('A' for Active; 'I' for Inactive)
REMARK    1  A    between atoms: O_2  and  C_3
REMARK    2  A    between atoms: C_8  and  S_9
REMARK    3  A    between atoms: S_9  and  C_11
REMARK    4  A    between atoms: C_11  and  C_12
REMARK    5  A    between atoms: C_17  and  O_18
REMARK                            x       y       z     vdW  Elec       q    Type
REMARK                         _______ _______ _______ _____ _____    ______ ____
ROOT
ATOM      1  S   UNL     1       1.423   6.052  -8.454  0.00  0.00    +0.107 S 
ATOM      2  O   UNL     1       1.249   7.302  -9.373  0.00  0.00    -0.248 OA
ENDROOT
BRANCH   1   8
ATOM      3  C   UNL     1       6.907   5.941 -11.155  0.00  0.00    +0.140 A 
ATOM      4  C   UNL     1       5.618   5.576 -11.423  0.00  0.00    +0.058 A 
ATOM      5  C   UNL     1       4.777   5.268 -10.387  0.00  0.00    +0.104 A 
ATOM      6  C   UNL     1       5.194   5.379  -9.073  0.00  0.00    +0.101 A 
ATOM      7  N   UNL     1       4.100   5.271  -8.306  0.00  0.00    -0.218 NA
ATOM      8  C   UNL     1       3.001   5.432  -9.087  0.00  0.00    +0.221 A 
ATOM      9  C   UNL     1       6.559   5.489  -8.854  0.00  0.00    +0.024 A 
ATOM     10  N   UNL     1       3.429   5.319 -10.334  0.00  0.00    -0.218 NA
ATOM     11  C   UNL     1       7.365   5.976  -9.864  0.00  0.00    +0.039 A 
BRANCH   3  13
ATOM     12  C   UNL     1       8.453   6.045 -12.449  0.00  0.00    +0.252 C 
ATOM     13  O   UNL     1       7.829   6.226 -12.172  0.00  0.00    -0.471 OA
ENDBRANCH   3  13
ENDBRANCH   1   8
BRANCH   1  14
ATOM     14  C   UNL     1       1.922   6.898  -6.896  0.00  0.00    +0.145 C 
BRANCH  14  15
ATOM     15  C   UNL     1       1.695   5.990  -5.737  0.00  0.00    +0.072 A 
ATOM     16  C   UNL     1       2.491   6.227  -4.623  0.00  0.00    +0.026 A 
ATOM     17  C   UNL     1       3.726   7.048  -4.758  0.00  0.00    +0.035 C 
ATOM     18  C   UNL     1       2.137   5.817  -3.356  0.00  0.00    +0.133 A 
ATOM     19  C   UNL     1       0.847   5.400  -3.128  0.00  0.00    +0.031 A 
ATOM     20  C   UNL     1       0.313   5.227  -1.744  0.00  0.00    +0.036 C 
ATOM     21  C   UNL     1      -0.019   5.433  -4.204  0.00  0.00    +0.097 A 
ATOM     22  N   UNL     1       0.417   5.632  -5.461  0.00  0.00    -0.248 NA
BRANCH  18  23
ATOM     23  O   UNL     1       2.996   5.987  -2.290  0.00  0.00    -0.472 OA
ATOM     24  C   UNL     1       3.841   4.923  -1.905  0.00  0.00    +0.252 C 
ENDBRANCH  18  23
ENDBRANCH  14  15
ENDBRANCH   1  14
TORSDOF 5
ENDMDL
MODEL 9
REMARK VINA RESULT:      -7.3      2.945      8.606
REMARK  Name = 
REMARK  5 active torsions:
REMARK  status: ('A' for Active; 'I' for Inactive)
REMARK    1  A    between atoms: O_2  and  C_3
REMARK    2  A    between atoms: C_8  and  S_9
REMARK    3  A    between atoms: S_9  and  C_11
REMARK    4  A    between atoms: C_11  and  C_12
REMARK    5  A    between atoms: C_17  and  O_18
REMARK                            x       y       z     vdW  Elec       q    Type
REMARK                         _______ _______ _______ _____ _____    ______ ____
ROOT
ATOM      1  S   UNL     1       2.701   6.009  -8.984  0.00  0.00    +0.107 S 
ATOM      2  O   UNL     1       1.731   4.862  -8.558  0.00  0.00    -0.248 OA
ENDROOT
BRANCH   1   8
ATOM      3  C   UNL     1       3.514   6.512  -2.945  0.00  0.00    +0.140 A 
ATOM      4  C   UNL     1       3.286   7.317  -4.025  0.00  0.00    +0.058 A 
ATOM      5  C   UNL     1       3.691   6.907  -5.267  0.00  0.00    +0.104 A 
ATOM      6  C   UNL     1       4.274   5.666  -5.453  0.00  0.00    +0.101 A 
ATOM      7  N   UNL     1       4.315   5.449  -6.775  0.00  0.00    -0.218 NA
ATOM      8  C   UNL     1       3.494   6.337  -7.390  0.00  0.00    +0.221 A 
ATOM      9  C   UNL     1       4.724   5.006  -4.319  0.00  0.00    +0.024 A 
ATOM     10  N   UNL     1       3.222   7.261  -6.482  0.00  0.00    -0.218 NA
ATOM     11  C   UNL     1       4.165   5.316  -3.095  0.00  0.00    +0.039 A 
BRANCH   3  13
ATOM     12  C   UNL     1       3.404   7.173  -1.040  0.00  0.00    +0.252 C 
ATOM     13  O   UNL     1       3.163   6.894  -1.642  0.00  0.00    -0.471 OA
ENDBRANCH   3  13
ENDBRANCH   1   8
BRANCH   1  14
ATOM     14  C   UNL     1       3.973   5.009  -9.864  0.00  0.00    +0.145 C 
BRANCH  14  15
ATOM     15  C   UNL     1       4.490   5.772 -11.033  0.00  0.00    +0.072 A 
ATOM     16  C   UNL     1       5.851   6.052 -11.013  0.00  0.00    +0.026 A 
ATOM     17  C   UNL     1       6.609   5.946  -9.736  0.00  0.00    +0.035 C 
ATOM     18  C   UNL     1       6.569   6.332 -12.156  0.00  0.00    +0.133 A 
ATOM     19  C   UNL     1       6.000   6.069 -13.380  0.00  0.00    +0.031 A 
ATOM     20  C   UNL     1       6.811   6.064 -14.634  0.00  0.00    +0.036 C 
ATOM     21  C   UNL     1       4.731   5.525 -13.374  0.00  0.00    +0.097 A 
ATOM     22  N   UNL     1       3.986   5.469 -12.254  0.00  0.00    -0.248 NA
BRANCH  18  23
ATOM     23  O   UNL     1       7.898   6.697 -12.086  0.00  0.00    -0.472 OA
ATOM     24  C   UNL     1       8.894   5.698 -12.146  0.00  0.00    +0.252 C 
ENDBRANCH  18  23
ENDBRANCH  14  15
ENDBRANCH   1  14
TORSDOF 5
ENDMDL
