MODEL 1
REMARK VINA RESULT:      -7.5      0.000      0.000
REMARK  Name = 
REMARK  3 active torsions:
REMARK  status: ('A' for Active; 'I' for Inactive)
REMARK    1  A    between atoms: C_6  and  C_8
REMARK    2  A    between atoms: C_8  and  C_9
REMARK    3  A    between atoms: C_12  and  N_13
REMARK                            x       y       z     vdW  Elec       q    Type
REMARK                         _______ _______ _______ _____ _____    ______ ____
ROOT
ATOM      1  C   UNL     1       3.652   7.207  -4.600  0.00  0.00    +0.002 C 
ATOM      2  C   UNL     1       3.249   5.635  -4.407  0.00  0.00    +0.022 C 
ATOM      3  C   UNL     1       1.994   5.562  -5.601  0.00  0.00    +0.094 C 
ATOM      4  C   UNL     1       2.436   6.904  -6.453  0.00  0.00    +0.113 C 
ATOM      5  N   UNL     1       3.596   6.519  -7.209  0.00  0.00    -0.277 N 
ATOM      6  C   UNL     1       3.373   5.978  -8.512  0.00  0.00    +0.241 C 
ATOM      7  O   UNL     1       3.034   6.795  -9.420  0.00  0.00    -0.274 OA
ATOM      8  C   UNL     1       4.719   6.039  -6.453  0.00  0.00    +0.094 C 
ATOM      9  C   UNL     1       4.370   5.047  -5.439  0.00  0.00    +0.023 C 
ENDROOT
BRANCH   3  10
ATOM     10  N   UNL     1       1.003   6.393  -4.688  0.00  0.00    -0.291 N 
ATOM     11  C   UNL     1       0.439   5.669  -3.609  0.00  0.00    +0.136 A 
ATOM     12  C   UNL     1      -0.934   5.488  -3.495  0.00  0.00    +0.069 A 
ATOM     13  C   UNL     1      -1.440   5.184  -2.237  0.00  0.00    +0.167 A 
ATOM     14  N   UNL     1      -2.770   5.046  -2.371  0.00  0.00    -0.225 NA
ATOM     15  C   UNL     1      -3.172   5.625  -3.528  0.00  0.00    +0.101 A 
ATOM     16  N   UNL     1      -0.698   5.300  -1.115  0.00  0.00    -0.205 NA
ATOM     17  C   UNL     1       0.564   5.736  -1.239  0.00  0.00    +0.201 A 
ATOM     18  C   UNL     1      -2.016   5.864  -4.263  0.00  0.00    +0.027 A 
ATOM     19  N   UNL     1       1.124   5.671  -2.440  0.00  0.00    -0.209 NA
ATOM     20  C   UNL     1       0.195   7.245  -5.528  0.00  0.00    +0.114 C 
ENDBRANCH   3  10
BRANCH   6  21
ATOM     21  C   UNL     1       2.933   4.549  -8.528  0.00  0.00    +0.190 C 
BRANCH  21  22
ATOM     22  C   UNL     1       1.714   4.485  -9.332  0.00  0.00    +0.083 C 
ATOM     23  N   UNL     1       0.892   4.332 -10.132  0.00  0.00    -0.195 NA
ENDBRANCH  21  22
ENDBRANCH   6  21
TORSDOF 3
ENDMDL
MODEL 2
REMARK VINA RESULT:      -7.4      2.501      4.634
REMARK  Name = 
REMARK  3 active torsions:
REMARK  status: ('A' for Active; 'I' for Inactive)
REMARK    1  A    between atoms: C_6  and  C_8
REMARK    2  A    between atoms: C_8  and  C_9
REMARK    3  A    between atoms: C_12  and  N_13
REMARK                            x       y       z     vdW  Elec       q    Type
REMARK                         _______ _______ _______ _____ _____    ______ ____
ROOT
ATOM      1  C   UNL     1       0.228   4.528 -10.381  0.00  0.00    +0.002 C 
ATOM      2  C   UNL     1       0.169   6.039  -9.759  0.00  0.00    +0.022 C 
ATOM      3  C   UNL     1       1.674   6.001  -8.899  0.00  0.00    +0.094 C 
ATOM      4  C   UNL     1       2.354   4.743  -9.719  0.00  0.00    +0.113 C 
ATOM      5  N   UNL     1       2.747   5.277 -10.994  0.00  0.00    -0.277 N 
ATOM      6  C   UNL     1       4.063   5.825 -11.092  0.00  0.00    +0.241 C 
ATOM      7  O   UNL     1       5.025   5.000 -11.125  0.00  0.00    -0.274 OA
ATOM      8  C   UNL     1       1.703   5.860 -11.790  0.00  0.00    +0.094 C 
ATOM      9  C   UNL     1       0.839   6.778 -11.053  0.00  0.00    +0.023 C 
ENDROOT
BRANCH   3  10
ATOM     10  N   UNL     1       1.080   5.039  -7.792  0.00  0.00    -0.291 N 
ATOM     11  C   UNL     1       0.195   5.660  -6.875  0.00  0.00    +0.136 A 
ATOM     12  C   UNL     1       0.468   5.693  -5.513  0.00  0.00    +0.069 A 
ATOM     13  C   UNL     1      -0.601   5.895  -4.648  0.00  0.00    +0.167 A 
ATOM     14  N   UNL     1      -0.102   5.899  -3.401  0.00  0.00    -0.225 NA
ATOM     15  C   UNL     1       1.125   5.326  -3.400  0.00  0.00    +0.101 A 
ATOM     16  N   UNL     1      -1.884   5.816  -5.059  0.00  0.00    -0.205 NA
ATOM     17  C   UNL     1      -2.115   5.518  -6.346  0.00  0.00    +0.201 A 
ATOM     18  C   UNL     1       1.510   5.235  -4.734  0.00  0.00    +0.027 A 
ATOM     19  N   UNL     1      -1.118   5.686  -7.206  0.00  0.00    -0.209 NA
ATOM     20  C   UNL     1       2.117   4.139  -7.346  0.00  0.00    +0.114 C 
ENDBRANCH   3  10
BRANCH   6  21
ATOM     21  C   UNL     1       4.214   7.194 -10.511  0.00  0.00    +0.190 C 
BRANCH  21  22
ATOM     22  C   UNL     1       5.518   7.700 -10.936  0.00  0.00    +0.083 C 
ATOM     23  N   UNL     1       6.420   8.265 -11.390  0.00  0.00    -0.195 NA
ENDBRANCH  21  22
ENDBRANCH   6  21
TORSDOF 3
ENDMDL
MODEL 3
REMARK VINA RESULT:      -7.4      3.646      8.617
REMARK  Name = 
REMARK  3 active torsions:
REMARK  status: ('A' for Active; 'I' for Inactive)
REMARK    1  A    between atoms: C_6  and  C_8
REMARK    2  A    between atoms: C_8  and  C_9
REMARK    3  A    between atoms: C_12  and  N_13
REMARK                            x       y       z     vdW  Elec       q    Type
REMARK                         _______ _______ _______ _____ _____    ______ ____
ROOT
ATOM      1  C   UNL     1       0.942   6.772 -11.017  0.00  0.00    +0.002 C 
ATOM      2  C   UNL     1       1.514   5.243 -11.099  0.00  0.00    +0.022 C 
ATOM      3  C   UNL     1       2.666   5.350  -9.809  0.00  0.00    +0.094 C 
ATOM      4  C   UNL     1       2.025   6.673  -9.063  0.00  0.00    +0.113 C 
ATOM      5  N   UNL     1       0.851   6.204  -8.381  0.00  0.00    -0.277 N 
ATOM      6  C   UNL     1       1.018   5.744  -7.038  0.00  0.00    +0.241 C 
ATOM      7  O   UNL     1       1.198   6.629  -6.149  0.00  0.00    -0.274 OA
ATOM      8  C   UNL     1      -0.153   5.580  -9.197  0.00  0.00    +0.094 C 
ATOM      9  C   UNL     1       0.374   4.587 -10.129  0.00  0.00    +0.023 C 
ENDROOT
BRANCH   3  10
ATOM     10  N   UNL     1       3.643   6.239 -10.682  0.00  0.00    -0.291 N 
ATOM     11  C   UNL     1       4.561   5.510 -11.477  0.00  0.00    +0.136 A 
ATOM     12  C   UNL     1       5.934   5.646 -11.309  0.00  0.00    +0.069 A 
ATOM     13  C   UNL     1       6.752   5.278 -12.370  0.00  0.00    +0.167 A 
ATOM     14  N   UNL     1       8.020   5.485 -11.979  0.00  0.00    -0.225 NA
ATOM     15  C   UNL     1       8.037   6.318 -10.911  0.00  0.00    +0.101 A 
ATOM     16  N   UNL     1       6.263   5.034 -13.604  0.00  0.00    -0.205 NA
ATOM     17  C   UNL     1       4.943   5.170 -13.795  0.00  0.00    +0.201 A 
ATOM     18  C   UNL     1       6.725   6.386 -10.454  0.00  0.00    +0.027 A 
ATOM     19  N   UNL     1       4.160   5.163 -12.723  0.00  0.00    -0.209 NA
ATOM     20  C   UNL     1       4.059   7.380  -9.904  0.00  0.00    +0.114 C 
ENDBRANCH   3  10
BRANCH   6  21
ATOM     21  C   UNL     1       1.594   4.370  -6.917  0.00  0.00    +0.190 C 
BRANCH  21  22
ATOM     22  C   UNL     1       2.509   4.387  -5.777  0.00  0.00    +0.083 C 
ATOM     23  N   UNL     1       3.388   4.497  -5.031  0.00  0.00    -0.195 NA
ENDBRANCH  21  22
ENDBRANCH   6  21
TORSDOF 3
ENDMDL
MODEL 4
REMARK VINA RESULT:      -7.3      3.536      6.127
REMARK  Name = 
REMARK  3 active torsions:
REMARK  status: ('A' for Active; 'I' for Inactive)
REMARK    1  A    between atoms: C_6  and  C_8
REMARK    2  A    between atoms: C_8  and  C_9
REMARK    3  A    between atoms: C_12  and  N_13
REMARK                            x       y       z     vdW  Elec       q    Type
REMARK                         _______ _______ _______ _____ _____    ______ ____
ROOT
ATOM      1  C   UNL     1       4.058   4.964  -1.951  0.00  0.00    +0.002 C 
ATOM      2  C   UNL     1       3.693   6.231  -2.918  0.00  0.00    +0.022 C 
ATOM      3  C   UNL     1       2.305   6.801  -2.050  0.00  0.00    +0.094 C 
ATOM      4  C   UNL     1       2.631   6.054  -0.617  0.00  0.00    +0.113 C 
ATOM      5  N   UNL     1       3.696   6.811  -0.017  0.00  0.00    -0.277 N 
ATOM      6  C   UNL     1       3.323   7.897   0.833  0.00  0.00    +0.241 C 
ATOM      7  O   UNL     1       2.871   7.597   1.979  0.00  0.00    -0.274 OA
ATOM      8  C   UNL     1       4.905   6.927  -0.784  0.00  0.00    +0.094 C 
ATOM      9  C   UNL     1       4.688   7.296  -2.180  0.00  0.00    +0.023 C 
ENDROOT
BRANCH   3  10
ATOM     10  N   UNL     1       1.424   5.586  -2.553  0.00  0.00    -0.291 N 
ATOM     11  C   UNL     1       0.669   5.843  -3.724  0.00  0.00    +0.136 A 
ATOM     12  C   UNL     1      -0.719   5.768  -3.724  0.00  0.00    +0.069 A 
ATOM     13  C   UNL     1      -1.353   5.584  -4.947  0.00  0.00    +0.167 A 
ATOM     14  N   UNL     1      -2.674   5.552  -4.703  0.00  0.00    -0.225 NA
ATOM     15  C   UNL     1      -2.888   5.308  -3.388  0.00  0.00    +0.101 A 
ATOM     16  N   UNL     1      -0.677   5.241  -6.063  0.00  0.00    -0.205 NA
ATOM     17  C   UNL     1       0.648   5.063  -5.966  0.00  0.00    +0.201 A 
ATOM     18  C   UNL     1      -1.662   5.489  -2.757  0.00  0.00    +0.027 A 
ATOM     19  N   UNL     1       1.264   5.583  -4.912  0.00  0.00    -0.209 NA
ATOM     20  C   UNL     1       0.841   4.925  -1.411  0.00  0.00    +0.114 C 
ENDBRANCH   3  10
BRANCH   6  21
ATOM     21  C   UNL     1       2.895   9.135   0.113  0.00  0.00    +0.190 C 
BRANCH  21  22
ATOM     22  C   UNL     1       1.662   9.596   0.747  0.00  0.00    +0.083 C 
ATOM     23  N   UNL     1       0.587   9.915   1.035  0.00  0.00    -0.195 NA
ENDBRANCH  21  22
ENDBRANCH   6  21
TORSDOF 3
ENDMDL
MODEL 5
REMARK VINA RESULT:      -7.1      2.324      6.480
REMARK  Name = 
REMARK  3 active torsions:
REMARK  status: ('A' for Active; 'I' for Inactive)
REMARK    1  A    between atoms: C_6  and  C_8
REMARK    2  A    between atoms: C_8  and  C_9
REMARK    3  A    between atoms: C_12  and  N_13
REMARK                            x       y       z     vdW  Elec       q    Type
REMARK                         _______ _______ _______ _____ _____    ______ ____
ROOT
ATOM      1  C   UNL     1       4.187   5.061  -5.403  0.00  0.00    +0.002 C 
ATOM      2  C   UNL     1       3.879   6.548  -6.007  0.00  0.00    +0.022 C 
ATOM      3  C   UNL     1       2.221   6.288  -6.444  0.00  0.00    +0.094 C 
ATOM      4  C   UNL     1       1.953   4.974  -5.484  0.00  0.00    +0.113 C 
ATOM      5  N   UNL     1       1.837   5.487  -4.147  0.00  0.00    -0.277 N 
ATOM      6  C   UNL     1       0.530   5.860  -3.704  0.00  0.00    +0.241 C 
ATOM      7  O   UNL     1      -0.270   4.917  -3.428  0.00  0.00    -0.274 OA
ATOM      8  C   UNL     1       2.964   6.225  -3.647  0.00  0.00    +0.094 C 
ATOM      9  C   UNL     1       3.475   7.228  -4.578  0.00  0.00    +0.023 C 
ENDROOT
BRANCH   3  10
ATOM     10  N   UNL     1       2.631   5.382  -7.676  0.00  0.00    -0.291 N 
ATOM     11  C   UNL     1       2.662   6.051  -8.924  0.00  0.00    +0.136 A 
ATOM     12  C   UNL     1       1.843   5.661  -9.977  0.00  0.00    +0.069 A 
ATOM     13  C   UNL     1       2.224   6.034 -11.260  0.00  0.00    +0.167 A 
ATOM     14  N   UNL     1       1.289   5.561 -12.101  0.00  0.00    -0.225 NA
ATOM     15  C   UNL     1       0.571   4.592 -11.483  0.00  0.00    +0.101 A 
ATOM     16  N   UNL     1       3.448   6.533 -11.531  0.00  0.00    -0.205 NA
ATOM     17  C   UNL     1       4.317   6.652 -10.516  0.00  0.00    +0.201 A 
ATOM     18  C   UNL     1       0.883   4.682 -10.131  0.00  0.00    +0.027 A 
ATOM     19  N   UNL     1       3.829   6.637  -9.282  0.00  0.00    -0.209 NA
ATOM     20  C   UNL     1       2.013   4.086  -7.530  0.00  0.00    +0.114 C 
ENDBRANCH   3  10
BRANCH   6  21
ATOM     21  C   UNL     1       0.052   7.181  -4.215  0.00  0.00    +0.190 C 
BRANCH  21  22
ATOM     22  C   UNL     1      -1.294   6.973  -4.747  0.00  0.00    +0.083 C 
ATOM     23  N   UNL     1      -2.345   7.041  -5.226  0.00  0.00    -0.195 NA
ENDBRANCH  21  22
ENDBRANCH   6  21
TORSDOF 3
ENDMDL
MODEL 6
REMARK VINA RESULT:      -7.0      2.813      6.870
REMARK  Name = 
REMARK  3 active torsions:
REMARK  status: ('A' for Active; 'I' for Inactive)
REMARK    1  A    between atoms: C_6  and  C_8
REMARK    2  A    between atoms: C_8  and  C_9
REMARK    3  A    between atoms: C_12  and  N_13
REMARK                            x       y       z     vdW  Elec       q    Type
REMARK                         _______ _______ _______ _____ _____    ______ ____
ROOT
ATOM      1  C   UNL     1      -2.697   6.834  -5.037  0.00  0.00    +0.002 C 
ATOM      2  C   UNL     1      -2.257   5.324  -4.594  0.00  0.00    +0.022 C 
ATOM      3  C   UNL     1      -0.896   5.751  -3.609  0.00  0.00    +0.094 C 
ATOM      4  C   UNL     1      -1.305   7.328  -3.357  0.00  0.00    +0.113 C 
ATOM      5  N   UNL     1      -2.376   7.304  -2.399  0.00  0.00    -0.277 N 
ATOM      6  C   UNL     1      -2.015   7.357  -1.017  0.00  0.00    +0.241 C 
ATOM      7  O   UNL     1      -1.624   8.478  -0.572  0.00  0.00    -0.274 OA
ATOM      8  C   UNL     1      -3.546   6.558  -2.771  0.00  0.00    +0.094 C 
ATOM      9  C   UNL     1      -3.257   5.230  -3.306  0.00  0.00    +0.023 C 
ENDROOT
BRANCH   3  10
ATOM     10  N   UNL     1      -0.023   6.116  -4.878  0.00  0.00    -0.291 N 
ATOM     11  C   UNL     1       1.127   5.310  -5.062  0.00  0.00    +0.136 A 
ATOM     12  C   UNL     1       2.405   5.857  -5.062  0.00  0.00    +0.069 A 
ATOM     13  C   UNL     1       3.416   5.129  -5.677  0.00  0.00    +0.167 A 
ATOM     14  N   UNL     1       4.548   5.841  -5.545  0.00  0.00    -0.225 NA
ATOM     15  C   UNL     1       4.245   7.126  -5.245  0.00  0.00    +0.101 A 
ATOM     16  N   UNL     1       3.159   4.063  -6.463  0.00  0.00    -0.205 NA
ATOM     17  C   UNL     1       1.877   3.718  -6.655  0.00  0.00    +0.201 A 
ATOM     18  C   UNL     1       2.899   7.133  -4.893  0.00  0.00    +0.027 A 
ATOM     19  N   UNL     1       0.978   4.182  -5.796  0.00  0.00    -0.209 NA
ATOM     20  C   UNL     1       0.035   7.552  -5.010  0.00  0.00    +0.114 C 
ENDBRANCH   3  10
BRANCH   6  21
ATOM     21  C   UNL     1      -1.525   6.064  -0.450  0.00  0.00    +0.190 C 
BRANCH  21  22
ATOM     22  C   UNL     1      -0.122   6.259  -0.090  0.00  0.00    +0.083 C 
ATOM     23  N   UNL     1       1.028   6.230   0.042  0.00  0.00    -0.195 NA
ENDBRANCH  21  22
ENDBRANCH   6  21
TORSDOF 3
ENDMDL
MODEL 7
REMARK VINA RESULT:      -6.8      2.521      6.844
REMARK  Name = 
REMARK  3 active torsions:
REMARK  status: ('A' for Active; 'I' for Inactive)
REMARK    1  A    between atoms: C_6  and  C_8
REMARK    2  A    between atoms: C_8  and  C_9
REMARK    3  A    between atoms: C_12  and  N_13
REMARK                            x       y       z     vdW  Elec       q    Type
REMARK                         _______ _______ _______ _____ _____    ______ ____
ROOT
ATOM      1  C   UNL     1      -2.377   7.373  -5.349  0.00  0.00    +0.002 C 
ATOM      2  C   UNL     1      -2.101   5.774  -5.541  0.00  0.00    +0.022 C 
ATOM      3  C   UNL     1      -0.529   5.714  -4.812  0.00  0.00    +0.094 C 
ATOM      4  C   UNL     1      -0.634   7.127  -3.969  0.00  0.00    +0.113 C 
ATOM      5  N   UNL     1      -1.495   6.851  -2.853  0.00  0.00    -0.277 N 
ATOM      6  C   UNL     1      -0.876   6.382  -1.653  0.00  0.00    +0.241 C 
ATOM      7  O   UNL     1      -0.239   7.237  -0.967  0.00  0.00    -0.274 OA
ATOM      8  C   UNL     1      -2.816   6.381  -3.168  0.00  0.00    +0.094 C 
ATOM      9  C   UNL     1      -2.842   5.310  -4.161  0.00  0.00    +0.023 C 
ENDROOT
BRANCH   3  10
ATOM     10  N   UNL     1       0.135   6.433  -6.056  0.00  0.00    -0.291 N 
ATOM     11  C   UNL     1       0.543   5.566  -7.098  0.00  0.00    +0.136 A 
ATOM     12  C   UNL     1       1.873   5.482  -7.494  0.00  0.00    +0.069 A 
ATOM     13  C   UNL     1       2.136   4.985  -8.765  0.00  0.00    +0.167 A 
ATOM     14  N   UNL     1       3.470   4.989  -8.920  0.00  0.00    -0.225 NA
ATOM     15  C   UNL     1       4.032   5.811  -8.002  0.00  0.00    +0.101 A 
ATOM     16  N   UNL     1       1.165   4.819  -9.688  0.00  0.00    -0.205 NA
ATOM     17  C   UNL     1      -0.087   5.164  -9.352  0.00  0.00    +0.201 A 
ATOM     18  C   UNL     1       3.037   6.089  -7.071  0.00  0.00    +0.027 A 
ATOM     19  N   UNL     1      -0.368   5.284  -8.060  0.00  0.00    -0.209 NA
ATOM     20  C   UNL     1       0.988   7.496  -5.582  0.00  0.00    +0.114 C 
ENDBRANCH   3  10
BRANCH   6  21
ATOM     21  C   UNL     1      -0.495   4.937  -1.671  0.00  0.00    +0.190 C 
BRANCH  21  22
ATOM     22  C   UNL     1       0.890   4.853  -1.211  0.00  0.00    +0.083 C 
ATOM     23  N   UNL     1       1.928   4.561  -0.789  0.00  0.00    -0.195 NA
ENDBRANCH  21  22
ENDBRANCH   6  21
TORSDOF 3
ENDMDL
MODEL 8
REMARK VINA RESULT:      -6.8      2.622      6.738
REMARK  Name = 
REMARK  3 active torsions:
REMARK  status: ('A' for Active; 'I' for Inactive)
REMARK    1  A    between atoms: C_6  and  C_8
REMARK    2  A    between atoms: C_8  and  C_9
REMARK    3  A    between atoms: C_12  and  N_13
REMARK                            x       y       z     vdW  Elec       q    Type
REMARK                         _______ _______ _______ _____ _____    ______ ____
ROOT
ATOM      1  C   UNL     1      -0.244   7.082  -5.400  0.00  0.00    +0.002 C 
ATOM      2  C   UNL     1       0.161   5.541  -5.763  0.00  0.00    +0.022 C 
ATOM      3  C   UNL     1       1.866   5.784  -5.961  0.00  0.00    +0.094 C 
ATOM      4  C   UNL     1       1.973   7.209  -5.138  0.00  0.00    +0.113 C 
ATOM      5  N   UNL     1       1.877   6.863  -3.747  0.00  0.00    -0.277 N 
ATOM      6  C   UNL     1       3.098   6.575  -3.062  0.00  0.00    +0.241 C 
ATOM      7  O   UNL     1       3.841   7.563  -2.779  0.00  0.00    -0.274 OA
ATOM      8  C   UNL     1       0.687   6.165  -3.345  0.00  0.00    +0.094 C 
ATOM      9  C   UNL     1       0.334   5.046  -4.215  0.00  0.00    +0.023 C 
ENDROOT
BRANCH   3  10
ATOM     10  N   UNL     1       1.655   6.526  -7.343  0.00  0.00    -0.291 N 
ATOM     11  C   UNL     1       1.710   5.689  -8.484  0.00  0.00    +0.136 A 
ATOM     12  C   UNL     1       2.662   5.879  -9.479  0.00  0.00    +0.069 A 
ATOM     13  C   UNL     1       2.394   5.348 -10.735  0.00  0.00    +0.167 A 
ATOM     14  N   UNL     1       3.444   5.645 -11.518  0.00  0.00    -0.225 NA
ATOM     15  C   UNL     1       4.159   6.650 -10.959  0.00  0.00    +0.101 A 
ATOM     16  N   UNL     1       1.173   4.884 -11.075  0.00  0.00    -0.205 NA
ATOM     17  C   UNL     1       0.195   4.959 -10.160  0.00  0.00    +0.201 A 
ATOM     18  C   UNL     1       3.699   6.771  -9.653  0.00  0.00    +0.027 A 
ATOM     19  N   UNL     1       0.549   5.124  -8.891  0.00  0.00    -0.209 NA
ATOM     20  C   UNL     1       2.344   7.794  -7.304  0.00  0.00    +0.114 C 
ENDBRANCH   3  10
BRANCH   6  21
ATOM     21  C   UNL     1       3.656   5.214  -3.326  0.00  0.00    +0.190 C 
BRANCH  21  22
ATOM     22  C   UNL     1       4.045   4.652  -2.034  0.00  0.00    +0.083 C 
ATOM     23  N   UNL     1       4.267   4.414  -0.923  0.00  0.00    -0.195 NA
ENDBRANCH  21  22
ENDBRANCH   6  21
TORSDOF 3
ENDMDL
MODEL 9
REMARK VINA RESULT:      -6.7      2.335      4.184
REMARK  Name = 
REMARK  3 active torsions:
REMARK  status: ('A' for Active; 'I' for Inactive)
REMARK    1  A    between atoms: C_6  and  C_8
REMARK    2  A    between atoms: C_8  and  C_9
REMARK    3  A    between atoms: C_12  and  N_13
REMARK                            x       y       z     vdW  Elec       q    Type
REMARK                         _______ _______ _______ _____ _____    ______ ____
ROOT
ATOM      1  C   UNL     1       0.910   4.510  -5.751  0.00  0.00    +0.002 C 
ATOM      2  C   UNL     1       0.537   6.097  -5.635  0.00  0.00    +0.022 C 
ATOM      3  C   UNL     1       1.411   6.441  -4.178  0.00  0.00    +0.094 C 
ATOM      4  C   UNL     1       2.419   5.137  -4.223  0.00  0.00    +0.113 C 
ATOM      5  N   UNL     1       3.393   5.433  -5.238  0.00  0.00    -0.277 N 
ATOM      6  C   UNL     1       4.578   6.116  -4.823  0.00  0.00    +0.241 C 
ATOM      7  O   UNL     1       5.434   5.436  -4.180  0.00  0.00    -0.274 OA
ATOM      8  C   UNL     1       2.882   5.691  -6.555  0.00  0.00    +0.094 C 
ATOM      9  C   UNL     1       1.759   6.624  -6.583  0.00  0.00    +0.023 C 
ENDROOT
BRANCH   3  10
ATOM     10  N   UNL     1       0.350   5.668  -3.294  0.00  0.00    -0.291 N 
ATOM     11  C   UNL     1      -0.797   6.422  -2.945  0.00  0.00    +0.136 A 
ATOM     12  C   UNL     1      -1.120   6.681  -1.619  0.00  0.00    +0.069 A 
ATOM     13  C   UNL     1      -2.438   7.013  -1.331  0.00  0.00    +0.167 A 
ATOM     14  N   UNL     1      -2.509   7.226  -0.006  0.00  0.00    -0.225 NA
ATOM     15  C   UNL     1      -1.433   6.673   0.602  0.00  0.00    +0.101 A 
ATOM     16  N   UNL     1      -3.433   6.855  -2.229  0.00  0.00    -0.205 NA
ATOM     17  C   UNL     1      -3.120   6.347  -3.430  0.00  0.00    +0.201 A 
ATOM     18  C   UNL     1      -0.531   6.368  -0.412  0.00  0.00    +0.027 A 
ATOM     19  N   UNL     1      -1.846   6.381  -3.801  0.00  0.00    -0.209 NA
ATOM     20  C   UNL     1       1.048   4.864  -2.320  0.00  0.00    +0.114 C 
ENDBRANCH   3  10
BRANCH   6  21
ATOM     21  C   UNL     1       4.408   7.585  -4.606  0.00  0.00    +0.190 C 
BRANCH  21  22
ATOM     22  C   UNL     1       4.502   7.820  -3.166  0.00  0.00    +0.083 C 
ATOM     23  N   UNL     1       4.335   8.003  -2.035  0.00  0.00    -0.195 NA
ENDBRANCH  21  22
ENDBRANCH   6  21
TORSDOF 3
ENDMDL
