MODEL 1
REMARK VINA RESULT:      -8.7      0.000      0.000
REMARK  Name = 
REMARK  2 active torsions:
REMARK  status: ('A' for Active; 'I' for Inactive)
REMARK    1  A    between atoms: N_2  and  C_3
REMARK    2  A    between atoms: C_3  and  C_4
REMARK                            x       y       z     vdW  Elec       q    Type
REMARK                         _______ _______ _______ _____ _____    ______ ____
ROOT
ATOM      1  C   UNL     1       2.674   5.690  -9.898  0.00  0.00    +0.170 C 
ATOM      2  N   UNL     1       2.054   5.762  -9.817  0.00  0.00    +0.299 N 
ATOM      3  C   UNL     1       1.469   4.611  -8.908  0.00  0.00    +0.092 C 
ATOM      4  C   UNL     1       2.293   5.121  -7.591  0.00  0.00    +0.178 C 
ATOM      5  C   UNL     1       1.752   6.343  -7.092  0.00  0.00    +0.102 C 
ATOM      6  C   UNL     1       2.533   6.712  -5.706  0.00  0.00    +0.229 C 
ATOM      7  O   UNL     1       1.346   7.535  -5.156  0.00  0.00    -0.468 OA
ATOM      8  C   UNL     1       0.224   6.725  -5.362  0.00  0.00    +0.173 A 
ATOM      9  C   UNL     1      -1.132   6.895  -5.088  0.00  0.00    +0.229 A 
ATOM     10  C   UNL     1      -2.065   6.164  -5.821  0.00  0.00    +0.045 A 
ATOM     11  C   UNL     1      -1.665   5.331  -6.869  0.00  0.00    -0.001 A 
ATOM     12  C   UNL     1      -0.325   5.232  -7.241  0.00  0.00    -0.017 A 
ATOM     13  O   UNL     1      -1.471   7.783  -4.091  0.00  0.00    -0.283 OA
ATOM     14  C   UNL     1       2.048   5.371  -4.926  0.00  0.00    +0.191 C 
ATOM     15  O   UNL     1       2.077   5.548  -3.708  0.00  0.00    -0.292 OA
ATOM     16  C   UNL     1       2.757   4.130  -5.381  0.00  0.00    +0.071 C 
ATOM     17  C   UNL     1       0.475   6.056  -6.500  0.00  0.00    +0.017 A 
ATOM     18  C   UNL     1       1.873   7.468  -8.022  0.00  0.00    +0.072 C 
ATOM     19  C   UNL     1       2.222   3.881  -6.761  0.00  0.00    +0.044 C 
ATOM     20  O   UNL     1       3.615   5.270  -8.003  0.00  0.00    -0.219 OA
ATOM     21  C   UNL     1       0.036   5.378  -8.688  0.00  0.00    +0.084 C 
ATOM     22  C   UNL     1       1.557   7.011  -9.396  0.00  0.00    +0.109 C 
ENDROOT
BRANCH   2  23
ATOM     23  C   UNL     1       1.379   5.404 -11.068  0.00  0.00    +0.108 C 
BRANCH  23  24
ATOM     24  C   UNL     1       1.457   6.642 -11.932  0.00  0.00    +0.055 C 
ATOM     25  C   UNL     1       0.275   7.201 -12.604  0.00  0.00    +0.006 C 
ATOM     26  C   UNL     1       1.452   6.571 -13.401  0.00  0.00    +0.006 C 
ENDBRANCH  23  24
ENDBRANCH   2  23
TORSDOF 2
ENDMDL
MODEL 2
REMARK VINA RESULT:      -8.3      2.935      5.742
REMARK  Name = 
REMARK  2 active torsions:
REMARK  status: ('A' for Active; 'I' for Inactive)
REMARK    1  A    between atoms: N_2  and  C_3
REMARK    2  A    between atoms: C_3  and  C_4
REMARK                            x       y       z     vdW  Elec       q    Type
REMARK                         _______ _______ _______ _____ _____    ______ ____
ROOT
ATOM      1  C   UNL     1      -1.433   5.654  -5.297  0.00  0.00    +0.170 C 
ATOM      2  N   UNL     1      -1.073   5.749  -4.790  0.00  0.00    +0.299 N 
ATOM      3  C   UNL     1       0.056   4.650  -4.686  0.00  0.00    +0.092 C 
ATOM      4  C   UNL     1       0.805   5.174  -6.042  0.00  0.00    +0.178 C 
ATOM      5  C   UNL     1       1.443   6.430  -5.819  0.00  0.00    +0.102 C 
ATOM      6  C   UNL     1       2.280   6.817  -7.168  0.00  0.00    +0.229 C 
ATOM      7  O   UNL     1       3.286   7.698  -6.394  0.00  0.00    -0.468 OA
ATOM      8  C   UNL     1       3.670   6.921  -5.296  0.00  0.00    +0.173 A 
ATOM      9  C   UNL     1       4.542   7.147  -4.232  0.00  0.00    +0.229 A 
ATOM     10  C   UNL     1       4.369   6.425  -3.053  0.00  0.00    +0.045 A 
ATOM     11  C   UNL     1       3.295   5.545  -2.897  0.00  0.00    -0.001 A 
ATOM     12  C   UNL     1       2.341   5.387  -3.902  0.00  0.00    -0.017 A 
ATOM     13  O   UNL     1       5.540   8.078  -4.417  0.00  0.00    -0.283 OA
ATOM     14  C   UNL     1       3.256   5.519  -7.088  0.00  0.00    +0.191 C 
ATOM     15  O   UNL     1       4.308   5.735  -7.691  0.00  0.00    -0.292 OA
ATOM     16  C   UNL     1       2.577   4.240  -7.479  0.00  0.00    +0.071 C 
ATOM     17  C   UNL     1       2.580   6.207  -4.969  0.00  0.00    +0.017 A 
ATOM     18  C   UNL     1       0.516   7.519  -5.503  0.00  0.00    +0.072 C 
ATOM     19  C   UNL     1       1.625   3.965  -6.352  0.00  0.00    +0.044 C 
ATOM     20  O   UNL     1      -0.188   5.264  -7.015  0.00  0.00    -0.219 OA
ATOM     21  C   UNL     1       0.890   5.474  -3.539  0.00  0.00    +0.084 C 
ATOM     22  C   UNL     1      -0.524   7.029  -4.570  0.00  0.00    +0.109 C 
ENDROOT
BRANCH   2  23
ATOM     23  C   UNL     1      -1.841   5.374  -3.599  0.00  0.00    +0.108 C 
BRANCH  23  24
ATOM     24  C   UNL     1      -2.536   6.642  -3.157  0.00  0.00    +0.055 C 
ATOM     25  C   UNL     1      -2.663   7.010  -1.739  0.00  0.00    +0.006 C 
ATOM     26  C   UNL     1      -3.899   6.633  -2.604  0.00  0.00    +0.006 C 
ENDBRANCH  23  24
ENDBRANCH   2  23
TORSDOF 2
ENDMDL
MODEL 3
REMARK VINA RESULT:      -8.0      2.574      6.304
REMARK  Name = 
REMARK  2 active torsions:
REMARK  status: ('A' for Active; 'I' for Inactive)
REMARK    1  A    between atoms: N_2  and  C_3
REMARK    2  A    between atoms: C_3  and  C_4
REMARK                            x       y       z     vdW  Elec       q    Type
REMARK                         _______ _______ _______ _____ _____    ______ ____
ROOT
ATOM      1  C   UNL     1       1.985   6.042  -5.339  0.00  0.00    +0.170 C 
ATOM      2  N   UNL     1       2.598   6.087  -5.476  0.00  0.00    +0.299 N 
ATOM      3  C   UNL     1       3.082   4.839  -6.313  0.00  0.00    +0.092 C 
ATOM      4  C   UNL     1       2.164   5.246  -7.603  0.00  0.00    +0.178 C 
ATOM      5  C   UNL     1       2.689   6.399  -8.259  0.00  0.00    +0.102 C 
ATOM      6  C   UNL     1       1.804   6.657  -9.609  0.00  0.00    +0.229 C 
ATOM      7  O   UNL     1       2.960   7.389 -10.328  0.00  0.00    -0.468 OA
ATOM      8  C   UNL     1       4.077   6.569 -10.134  0.00  0.00    +0.173 A 
ATOM      9  C   UNL     1       5.410   6.673 -10.530  0.00  0.00    +0.229 A 
ATOM     10  C   UNL     1       6.383   5.987  -9.806  0.00  0.00    +0.045 A 
ATOM     11  C   UNL     1       6.053   5.270  -8.654  0.00  0.00    -0.001 A 
ATOM     12  C   UNL     1       4.746   5.246  -8.169  0.00  0.00    -0.017 A 
ATOM     13  O   UNL     1       5.685   7.452 -11.632  0.00  0.00    -0.283 OA
ATOM     14  C   UNL     1       2.195   5.234 -10.291  0.00  0.00    +0.191 C 
ATOM     15  O   UNL     1       2.071   5.296 -11.514  0.00  0.00    -0.292 OA
ATOM     16  C   UNL     1       1.499   4.064  -9.663  0.00  0.00    +0.071 C 
ATOM     17  C   UNL     1       3.906   6.020  -8.921  0.00  0.00    +0.017 A 
ATOM     18  C   UNL     1       2.669   7.609  -7.436  0.00  0.00    +0.072 C 
ATOM     19  C   UNL     1       2.140   3.931  -8.312  0.00  0.00    +0.044 C 
ATOM     20  O   UNL     1       0.883   5.472  -7.104  0.00  0.00    -0.219 OA
ATOM     21  C   UNL     1       4.508   5.540  -6.719  0.00  0.00    +0.084 C 
ATOM     22  C   UNL     1       3.086   7.276  -6.054  0.00  0.00    +0.109 C 
ENDROOT
BRANCH   2  23
ATOM     23  C   UNL     1       3.365   5.830  -4.253  0.00  0.00    +0.108 C 
BRANCH  23  24
ATOM     24  C   UNL     1       3.830   7.189  -3.780  0.00  0.00    +0.055 C 
ATOM     25  C   UNL     1       5.151   7.393  -3.169  0.00  0.00    +0.006 C 
ATOM     26  C   UNL     1       3.836   7.560  -2.357  0.00  0.00    +0.006 C 
ENDBRANCH  23  24
ENDBRANCH   2  23
TORSDOF 2
ENDMDL
MODEL 4
REMARK VINA RESULT:      -7.8      3.288      5.575
REMARK  Name = 
REMARK  2 active torsions:
REMARK  status: ('A' for Active; 'I' for Inactive)
REMARK    1  A    between atoms: N_2  and  C_3
REMARK    2  A    between atoms: C_3  and  C_4
REMARK                            x       y       z     vdW  Elec       q    Type
REMARK                         _______ _______ _______ _____ _____    ______ ____
ROOT
ATOM      1  C   UNL     1       3.371   5.084  -5.795  0.00  0.00    +0.170 C 
ATOM      2  N   UNL     1       3.716   5.503  -5.476  0.00  0.00    +0.299 N 
ATOM      3  C   UNL     1       2.836   6.736  -5.031  0.00  0.00    +0.092 C 
ATOM      4  C   UNL     1       1.935   5.829  -4.012  0.00  0.00    +0.178 C 
ATOM      5  C   UNL     1       2.695   5.440  -2.868  0.00  0.00    +0.102 C 
ATOM      6  C   UNL     1       1.693   4.661  -1.840  0.00  0.00    +0.229 C 
ATOM      7  O   UNL     1       2.545   5.022  -0.602  0.00  0.00    -0.468 OA
ATOM      8  C   UNL     1       2.803   6.391  -0.733  0.00  0.00    +0.173 A 
ATOM      9  C   UNL     1       3.513   7.301   0.048  0.00  0.00    +0.229 A 
ATOM     10  C   UNL     1       4.011   8.457  -0.550  0.00  0.00    +0.045 A 
ATOM     11  C   UNL     1       3.878   8.674  -1.923  0.00  0.00    -0.001 A 
ATOM     12  C   UNL     1       3.275   7.725  -2.748  0.00  0.00    -0.017 A 
ATOM     13  O   UNL     1       3.674   7.001   1.383  0.00  0.00    -0.283 OA
ATOM     14  C   UNL     1       0.715   5.941  -1.620  0.00  0.00    +0.191 C 
ATOM     15  O   UNL     1       0.116   5.845  -0.549  0.00  0.00    -0.292 OA
ATOM     16  C   UNL     1      -0.174   6.218  -2.796  0.00  0.00    +0.071 C 
ATOM     17  C   UNL     1       2.903   6.606  -2.055  0.00  0.00    +0.017 A 
ATOM     18  C   UNL     1       3.831   4.571  -3.179  0.00  0.00    +0.072 C 
ATOM     19  C   UNL     1       0.758   6.734  -3.853  0.00  0.00    +0.044 C 
ATOM     20  O   UNL     1       1.516   4.726  -4.754  0.00  0.00    -0.219 OA
ATOM     21  C   UNL     1       3.980   7.306  -4.002  0.00  0.00    +0.084 C 
ATOM     22  C   UNL     1       4.511   5.061  -4.400  0.00  0.00    +0.109 C 
ENDROOT
BRANCH   2  23
ATOM     23  C   UNL     1       4.588   6.200  -6.427  0.00  0.00    +0.108 C 
BRANCH  23  24
ATOM     24  C   UNL     1       4.501   5.401  -7.708  0.00  0.00    +0.055 C 
ATOM     25  C   UNL     1       5.612   5.343  -8.669  0.00  0.00    +0.006 C 
ATOM     26  C   UNL     1       4.266   6.040  -9.012  0.00  0.00    +0.006 C 
ENDBRANCH  23  24
ENDBRANCH   2  23
TORSDOF 2
ENDMDL
MODEL 5
REMARK VINA RESULT:      -7.7      2.480      4.419
REMARK  Name = 
REMARK  2 active torsions:
REMARK  status: ('A' for Active; 'I' for Inactive)
REMARK    1  A    between atoms: N_2  and  C_3
REMARK    2  A    between atoms: C_3  and  C_4
REMARK                            x       y       z     vdW  Elec       q    Type
REMARK                         _______ _______ _______ _____ _____    ______ ____
ROOT
ATOM      1  C   UNL     1       1.341   5.752  -7.751  0.00  0.00    +0.170 C 
ATOM      2  N   UNL     1       1.827   5.874  -7.371  0.00  0.00    +0.299 N 
ATOM      3  C   UNL     1       1.575   7.193  -6.540  0.00  0.00    +0.092 C 
ATOM      4  C   UNL     1       0.335   6.528  -5.707  0.00  0.00    +0.178 C 
ATOM      5  C   UNL     1       0.809   5.551  -4.781  0.00  0.00    +0.102 C 
ATOM      6  C   UNL     1      -0.464   5.037  -3.895  0.00  0.00    +0.229 C 
ATOM      7  O   UNL     1       0.424   4.637  -2.695  0.00  0.00    -0.468 OA
ATOM      8  C   UNL     1       1.268   5.735  -2.494  0.00  0.00    +0.173 A 
ATOM      9  C   UNL     1       2.286   5.994  -1.578  0.00  0.00    +0.229 A 
ATOM     10  C   UNL     1       3.264   6.933  -1.903  0.00  0.00    +0.045 A 
ATOM     11  C   UNL     1       3.280   7.552  -3.155  0.00  0.00    -0.001 A 
ATOM     12  C   UNL     1       2.342   7.226  -4.133  0.00  0.00    -0.017 A 
ATOM     13  O   UNL     1       2.259   5.301  -0.387  0.00  0.00    -0.283 OA
ATOM     14  C   UNL     1      -0.776   6.500  -3.260  0.00  0.00    +0.191 C 
ATOM     15  O   UNL     1      -1.385   6.386  -2.196  0.00  0.00    -0.292 OA
ATOM     16  C   UNL     1      -1.415   7.446  -4.233  0.00  0.00    +0.071 C 
ATOM     17  C   UNL     1       1.491   6.238  -3.719  0.00  0.00    +0.017 A 
ATOM     18  C   UNL     1       1.449   4.396  -5.413  0.00  0.00    +0.072 C 
ATOM     19  C   UNL     1      -0.321   7.773  -5.207  0.00  0.00    +0.044 C 
ATOM     20  O   UNL     1      -0.509   5.967  -6.663  0.00  0.00    -0.219 OA
ATOM     21  C   UNL     1       2.822   6.903  -5.516  0.00  0.00    +0.084 C 
ATOM     22  C   UNL     1       2.311   4.855  -6.527  0.00  0.00    +0.109 C 
ENDROOT
BRANCH   2  23
ATOM     23  C   UNL     1       2.945   6.353  -8.190  0.00  0.00    +0.108 C 
BRANCH  23  24
ATOM     24  C   UNL     1       3.753   5.119  -8.523  0.00  0.00    +0.055 C 
ATOM     25  C   UNL     1       5.223   5.124  -8.519  0.00  0.00    +0.006 C 
ATOM     26  C   UNL     1       4.406   4.942  -9.829  0.00  0.00    +0.006 C 
ENDBRANCH  23  24
ENDBRANCH   2  23
TORSDOF 2
ENDMDL
MODEL 6
REMARK VINA RESULT:      -7.6      1.920      3.808
REMARK  Name = 
REMARK  2 active torsions:
REMARK  status: ('A' for Active; 'I' for Inactive)
REMARK    1  A    between atoms: N_2  and  C_3
REMARK    2  A    between atoms: C_3  and  C_4
REMARK                            x       y       z     vdW  Elec       q    Type
REMARK                         _______ _______ _______ _____ _____    ______ ____
ROOT
ATOM      1  C   UNL     1       2.126   5.442 -10.261  0.00  0.00    +0.170 C 
ATOM      2  N   UNL     1       2.637   5.613  -9.937  0.00  0.00    +0.299 N 
ATOM      3  C   UNL     1       2.299   6.778  -8.925  0.00  0.00    +0.092 C 
ATOM      4  C   UNL     1       1.328   5.821  -8.022  0.00  0.00    +0.178 C 
ATOM      5  C   UNL     1       2.092   4.862  -7.293  0.00  0.00    +0.102 C 
ATOM      6  C   UNL     1       1.071   4.042  -6.316  0.00  0.00    +0.229 C 
ATOM      7  O   UNL     1       2.184   3.696  -5.301  0.00  0.00    -0.468 OA
ATOM      8  C   UNL     1       2.855   4.904  -5.082  0.00  0.00    +0.173 A 
ATOM      9  C   UNL     1       3.943   5.253  -4.284  0.00  0.00    +0.229 A 
ATOM     10  C   UNL     1       4.691   6.381  -4.618  0.00  0.00    +0.045 A 
ATOM     11  C   UNL     1       4.414   7.111  -5.777  0.00  0.00    -0.001 A 
ATOM     12  C   UNL     1       3.406   6.716  -6.655  0.00  0.00    -0.017 A 
ATOM     13  O   UNL     1       4.212   4.456  -3.193  0.00  0.00    -0.283 OA
ATOM     14  C   UNL     1       0.620   5.356  -5.471  0.00  0.00    +0.191 C 
ATOM     15  O   UNL     1       0.207   5.031  -4.358  0.00  0.00    -0.292 OA
ATOM     16  C   UNL     1      -0.307   6.260  -6.229  0.00  0.00    +0.071 C 
ATOM     17  C   UNL     1       2.803   5.555  -6.256  0.00  0.00    +0.017 A 
ATOM     18  C   UNL     1       2.811   3.909  -8.140  0.00  0.00    +0.072 C 
ATOM     19  C   UNL     1       0.558   6.873  -7.292  0.00  0.00    +0.044 C 
ATOM     20  O   UNL     1       0.453   5.212  -8.919  0.00  0.00    -0.219 OA
ATOM     21  C   UNL     1       3.718   6.621  -8.118  0.00  0.00    +0.084 C 
ATOM     22  C   UNL     1       3.405   4.622  -9.294  0.00  0.00    +0.109 C 
ENDROOT
BRANCH   2  23
ATOM     23  C   UNL     1       3.523   6.364 -10.832  0.00  0.00    +0.108 C 
BRANCH  23  24
ATOM     24  C   UNL     1       4.515   5.349 -11.355  0.00  0.00    +0.055 C 
ATOM     25  C   UNL     1       5.897   5.713 -11.697  0.00  0.00    +0.006 C 
ATOM     26  C   UNL     1       4.873   5.271 -12.780  0.00  0.00    +0.006 C 
ENDBRANCH  23  24
ENDBRANCH   2  23
TORSDOF 2
ENDMDL
MODEL 7
REMARK VINA RESULT:      -7.2      1.801      3.875
REMARK  Name = 
REMARK  2 active torsions:
REMARK  status: ('A' for Active; 'I' for Inactive)
REMARK    1  A    between atoms: N_2  and  C_3
REMARK    2  A    between atoms: C_3  and  C_4
REMARK                            x       y       z     vdW  Elec       q    Type
REMARK                         _______ _______ _______ _____ _____    ______ ____
ROOT
ATOM      1  C   UNL     1       0.302   5.277  -8.133  0.00  0.00    +0.170 C 
ATOM      2  N   UNL     1       0.901   5.427  -8.009  0.00  0.00    +0.299 N 
ATOM      3  C   UNL     1       0.991   6.812  -7.258  0.00  0.00    +0.092 C 
ATOM      4  C   UNL     1       0.249   6.229  -5.923  0.00  0.00    +0.178 C 
ATOM      5  C   UNL     1       1.104   5.330  -5.217  0.00  0.00    +0.102 C 
ATOM      6  C   UNL     1       0.350   4.901  -3.832  0.00  0.00    +0.229 C 
ATOM      7  O   UNL     1       1.678   4.597  -3.103  0.00  0.00    -0.468 OA
ATOM      8  C   UNL     1       2.494   5.702  -3.372  0.00  0.00    +0.173 A 
ATOM      9  C   UNL     1       3.798   6.029  -3.006  0.00  0.00    +0.229 A 
ATOM     10  C   UNL     1       4.514   6.930  -3.793  0.00  0.00    +0.045 A 
ATOM     11  C   UNL     1       3.973   7.442  -4.975  0.00  0.00    -0.001 A 
ATOM     12  C   UNL     1       2.716   7.041  -5.426  0.00  0.00    -0.017 A 
ATOM     13  O   UNL     1       4.305   5.439  -1.869  0.00  0.00    -0.283 OA
ATOM     14  C   UNL     1       0.298   6.415  -3.242  0.00  0.00    +0.191 C 
ATOM     15  O   UNL     1       0.207   6.395  -2.014  0.00  0.00    -0.292 OA
ATOM     16  C   UNL     1      -0.725   7.281  -3.917  0.00  0.00    +0.071 C 
ATOM     17  C   UNL     1       2.154   6.098  -4.610  0.00  0.00    +0.017 A 
ATOM     18  C   UNL     1       1.444   4.121  -5.969  0.00  0.00    +0.072 C 
ATOM     19  C   UNL     1      -0.165   7.517  -5.289  0.00  0.00    +0.044 C 
ATOM     20  O   UNL     1      -0.907   5.597  -6.375  0.00  0.00    -0.219 OA
ATOM     21  C   UNL     1       2.566   6.600  -6.850  0.00  0.00    +0.084 C 
ATOM     22  C   UNL     1       1.730   4.478  -7.378  0.00  0.00    +0.109 C 
ENDROOT
BRANCH   2  23
ATOM     23  C   UNL     1       1.544   5.827  -9.265  0.00  0.00    +0.108 C 
BRANCH  23  24
ATOM     24  C   UNL     1       0.445   5.801 -10.303  0.00  0.00    +0.055 C 
ATOM     25  C   UNL     1       0.723   5.581 -11.730  0.00  0.00    +0.006 C 
ATOM     26  C   UNL     1       0.188   6.940 -11.197  0.00  0.00    +0.006 C 
ENDBRANCH  23  24
ENDBRANCH   2  23
TORSDOF 2
ENDMDL
MODEL 8
REMARK VINA RESULT:      -7.0      2.471      6.192
REMARK  Name = 
REMARK  2 active torsions:
REMARK  status: ('A' for Active; 'I' for Inactive)
REMARK    1  A    between atoms: N_2  and  C_3
REMARK    2  A    between atoms: C_3  and  C_4
REMARK                            x       y       z     vdW  Elec       q    Type
REMARK                         _______ _______ _______ _____ _____    ______ ____
ROOT
ATOM      1  C   UNL     1       2.667   6.326  -3.889  0.00  0.00    +0.170 C 
ATOM      2  N   UNL     1       3.131   6.149  -4.276  0.00  0.00    +0.299 N 
ATOM      3  C   UNL     1       2.729   4.853  -5.083  0.00  0.00    +0.092 C 
ATOM      4  C   UNL     1       1.550   5.633  -5.905  0.00  0.00    +0.178 C 
ATOM      5  C   UNL     1       2.106   6.543  -6.854  0.00  0.00    +0.102 C 
ATOM      6  C   UNL     1       0.878   7.175  -7.726  0.00  0.00    +0.229 C 
ATOM      7  O   UNL     1       1.781   7.465  -8.946  0.00  0.00    -0.468 OA
ATOM      8  C   UNL     1       2.502   6.282  -9.145  0.00  0.00    +0.173 A 
ATOM      9  C   UNL     1       3.471   5.907 -10.073  0.00  0.00    +0.229 A 
ATOM     10  C   UNL     1       4.352   4.876  -9.751  0.00  0.00    +0.045 A 
ATOM     11  C   UNL     1       4.326   4.274  -8.490  0.00  0.00    -0.001 A 
ATOM     12  C   UNL     1       3.445   4.710  -7.501  0.00  0.00    -0.017 A 
ATOM     13  O   UNL     1       3.495   6.583 -11.273  0.00  0.00    -0.283 OA
ATOM     14  C   UNL     1       0.404   5.744  -8.334  0.00  0.00    +0.191 C 
ATOM     15  O   UNL     1      -0.209   5.907  -9.389  0.00  0.00    -0.292 OA
ATOM     16  C   UNL     1      -0.312   4.882  -7.337  0.00  0.00    +0.071 C 
ATOM     17  C   UNL     1       2.694   5.775  -7.915  0.00  0.00    +0.017 A 
ATOM     18  C   UNL     1       2.874   7.633  -6.249  0.00  0.00    +0.072 C 
ATOM     19  C   UNL     1       0.760   4.456  -6.376  0.00  0.00    +0.044 C 
ATOM     20  O   UNL     1       0.786   6.290  -4.944  0.00  0.00    -0.219 OA
ATOM     21  C   UNL     1       3.981   4.998  -6.132  0.00  0.00    +0.084 C 
ATOM     22  C   UNL     1       3.703   7.101  -5.142  0.00  0.00    +0.109 C 
ENDROOT
BRANCH   2  23
ATOM     23  C   UNL     1       4.207   5.567  -3.468  0.00  0.00    +0.108 C 
BRANCH  23  24
ATOM     24  C   UNL     1       3.634   5.434  -2.075  0.00  0.00    +0.055 C 
ATOM     25  C   UNL     1       4.374   5.867  -0.881  0.00  0.00    +0.006 C 
ATOM     26  C   UNL     1       4.060   4.369  -1.154  0.00  0.00    +0.006 C 
ENDBRANCH  23  24
ENDBRANCH   2  23
TORSDOF 2
ENDMDL
MODEL 9
REMARK VINA RESULT:      -6.9      3.367      4.779
REMARK  Name = 
REMARK  2 active torsions:
REMARK  status: ('A' for Active; 'I' for Inactive)
REMARK    1  A    between atoms: N_2  and  C_3
REMARK    2  A    between atoms: C_3  and  C_4
REMARK                            x       y       z     vdW  Elec       q    Type
REMARK                         _______ _______ _______ _____ _____    ______ ____
ROOT
ATOM      1  C   UNL     1       4.140   5.918  -5.557  0.00  0.00    +0.170 C 
ATOM      2  N   UNL     1       3.526   5.924  -5.419  0.00  0.00    +0.299 N 
ATOM      3  C   UNL     1       3.174   4.796  -4.372  0.00  0.00    +0.092 C 
ATOM      4  C   UNL     1       4.045   5.510  -3.187  0.00  0.00    +0.178 C 
ATOM      5  C   UNL     1       3.404   6.700  -2.730  0.00  0.00    +0.102 C 
ATOM      6  C   UNL     1       4.258   7.276  -1.461  0.00  0.00    +0.229 C 
ATOM      7  O   UNL     1       3.033   8.000  -0.857  0.00  0.00    -0.468 OA
ATOM      8  C   UNL     1       2.006   7.049  -0.886  0.00  0.00    +0.173 A 
ATOM      9  C   UNL     1       0.670   7.084  -0.491  0.00  0.00    +0.229 A 
ATOM     10  C   UNL     1      -0.228   6.188  -1.068  0.00  0.00    +0.045 A 
ATOM     11  C   UNL     1       0.174   5.320  -2.086  0.00  0.00    -0.001 A 
ATOM     12  C   UNL     1       1.477   5.346  -2.583  0.00  0.00    -0.017 A 
ATOM     13  O   UNL     1       0.316   8.009   0.467  0.00  0.00    -0.283 OA
ATOM     14  C   UNL     1       4.016   5.960  -0.537  0.00  0.00    +0.191 C 
ATOM     15  O   UNL     1       4.134   6.243   0.655  0.00  0.00    -0.292 OA
ATOM     16  C   UNL     1       4.829   4.775  -0.968  0.00  0.00    +0.071 C 
ATOM     17  C   UNL     1       2.233   6.319  -1.991  0.00  0.00    +0.017 A 
ATOM     18  C   UNL     1       3.299   7.746  -3.748  0.00  0.00    +0.072 C 
ATOM     19  C   UNL     1       4.205   4.347  -2.264  0.00  0.00    +0.044 C 
ATOM     20  O   UNL     1       5.296   5.776  -3.741  0.00  0.00    -0.219 OA
ATOM     21  C   UNL     1       1.683   5.408  -4.066  0.00  0.00    +0.084 C 
ATOM     22  C   UNL     1       2.918   7.139  -5.045  0.00  0.00    +0.109 C 
ENDROOT
BRANCH   2  23
ATOM     23  C   UNL     1       2.789   5.383  -6.566  0.00  0.00    +0.108 C 
BRANCH  23  24
ATOM     24  C   UNL     1       2.448   6.582  -7.422  0.00  0.00    +0.055 C 
ATOM     25  C   UNL     1       1.373   6.544  -8.425  0.00  0.00    +0.006 C 
ATOM     26  C   UNL     1       2.868   6.682  -8.828  0.00  0.00    +0.006 C 
ENDBRANCH  23  24
ENDBRANCH   2  23
TORSDOF 2
ENDMDL
