MODEL 1
REMARK VINA RESULT:      -5.6      0.000      0.000
REMARK  Name = 
REMARK  1 active torsions:
REMARK  status: ('A' for Active; 'I' for Inactive)
REMARK    1  A    between atoms: C_5  and  C_6
REMARK                            x       y       z     vdW  Elec       q    Type
REMARK                         _______ _______ _______ _____ _____    ______ ____
ROOT
ATOM      1  N   UNL     1       3.510   6.357  -9.953  0.00  0.00    -0.128 NA
ATOM      2  C   UNL     1       4.908   6.635 -10.075  0.00  0.00    +0.092 A 
ATOM      3  C   UNL     1       5.865   5.849  -9.445  0.00  0.00    +0.060 A 
ATOM      4  C   UNL     1       7.099   5.644 -10.047  0.00  0.00    +0.203 A 
ATOM      5  O   UNL     1       8.112   4.913  -9.428  0.00  0.00    -0.286 OA
ATOM      6  C   UNL     1       7.388   6.257 -11.260  0.00  0.00    +0.119 A 
ATOM      7  C   UNL     1       6.577   7.276 -11.707  0.00  0.00    +0.011 A 
ATOM      8  C   UNL     1       5.399   7.530 -11.017  0.00  0.00    +0.018 A 
ENDROOT
BRANCH   6   9
ATOM      9  C   UNL     1       8.277   5.575 -12.207  0.00  0.00    +0.391 C 
ATOM     10  O   UNL     1       7.764   4.688 -13.157  0.00  0.00    -0.240 OA
ATOM     11  O   UNL     1       9.447   5.979 -12.389  0.00  0.00    -0.240 OA
ENDBRANCH   6   9
TORSDOF 1
ENDMDL
MODEL 2
REMARK VINA RESULT:      -5.4      3.221      4.339
REMARK  Name = 
REMARK  1 active torsions:
REMARK  status: ('A' for Active; 'I' for Inactive)
REMARK    1  A    between atoms: C_5  and  C_6
REMARK                            x       y       z     vdW  Elec       q    Type
REMARK                         _______ _______ _______ _____ _____    ______ ____
ROOT
ATOM      1  N   UNL     1       7.853   4.733 -12.792  0.00  0.00    -0.128 NA
ATOM      2  C   UNL     1       7.180   5.500 -11.790  0.00  0.00    +0.092 A 
ATOM      3  C   UNL     1       5.865   5.919 -11.954  0.00  0.00    +0.060 A 
ATOM      4  C   UNL     1       5.026   6.014 -10.852  0.00  0.00    +0.203 A 
ATOM      5  O   UNL     1       3.718   6.485 -10.957  0.00  0.00    -0.286 OA
ATOM      6  C   UNL     1       5.513   5.726  -9.583  0.00  0.00    +0.119 A 
ATOM      7  C   UNL     1       6.873   5.633  -9.392  0.00  0.00    +0.011 A 
ATOM      8  C   UNL     1       7.698   5.651 -10.509  0.00  0.00    +0.018 A 
ENDROOT
BRANCH   6   9
ATOM      9  C   UNL     1       4.604   5.149  -8.587  0.00  0.00    +0.391 C 
ATOM     10  O   UNL     1       3.853   4.008  -8.879  0.00  0.00    -0.240 OA
ATOM     11  O   UNL     1       4.693   5.469  -7.380  0.00  0.00    -0.240 OA
ENDBRANCH   6   9
TORSDOF 1
ENDMDL
MODEL 3
REMARK VINA RESULT:      -5.2      9.222     10.849
REMARK  Name = 
REMARK  1 active torsions:
REMARK  status: ('A' for Active; 'I' for Inactive)
REMARK    1  A    between atoms: C_5  and  C_6
REMARK                            x       y       z     vdW  Elec       q    Type
REMARK                         _______ _______ _______ _____ _____    ______ ____
ROOT
ATOM      1  N   UNL     1       1.620   3.707  -6.102  0.00  0.00    -0.128 NA
ATOM      2  C   UNL     1       0.806   4.805  -5.678  0.00  0.00    +0.092 A 
ATOM      3  C   UNL     1      -0.338   5.174  -6.374  0.00  0.00    +0.060 A 
ATOM      4  C   UNL     1      -1.431   5.686  -5.688  0.00  0.00    +0.203 A 
ATOM      5  O   UNL     1      -2.578   6.126  -6.347  0.00  0.00    -0.286 OA
ATOM      6  C   UNL     1      -1.365   5.862  -4.311  0.00  0.00    +0.119 A 
ATOM      7  C   UNL     1      -0.140   5.805  -3.687  0.00  0.00    +0.011 A 
ATOM      8  C   UNL     1       0.960   5.394  -4.429  0.00  0.00    +0.018 A 
ENDROOT
BRANCH   6   9
ATOM      9  C   UNL     1      -2.587   5.713  -3.516  0.00  0.00    +0.391 C 
ATOM     10  O   UNL     1      -2.824   4.549  -2.780  0.00  0.00    -0.240 OA
ATOM     11  O   UNL     1      -3.294   6.707  -3.236  0.00  0.00    -0.240 OA
ENDBRANCH   6   9
TORSDOF 1
ENDMDL
MODEL 4
REMARK VINA RESULT:      -5.1      8.151      9.510
REMARK  Name = 
REMARK  1 active torsions:
REMARK  status: ('A' for Active; 'I' for Inactive)
REMARK    1  A    between atoms: C_5  and  C_6
REMARK                            x       y       z     vdW  Elec       q    Type
REMARK                         _______ _______ _______ _____ _____    ______ ____
ROOT
ATOM      1  N   UNL     1      -2.839   4.889  -2.580  0.00  0.00    -0.128 NA
ATOM      2  C   UNL     1      -2.044   5.574  -3.553  0.00  0.00    +0.092 A 
ATOM      3  C   UNL     1      -0.732   5.948  -3.289  0.00  0.00    +0.060 A 
ATOM      4  C   UNL     1       0.207   5.949  -4.312  0.00  0.00    +0.203 A 
ATOM      5  O   UNL     1       1.520   6.373  -4.109  0.00  0.00    -0.286 OA
ATOM      6  C   UNL     1      -0.176   5.613  -5.604  0.00  0.00    +0.119 A 
ATOM      7  C   UNL     1      -1.516   5.565  -5.915  0.00  0.00    +0.011 A 
ATOM      8  C   UNL     1      -2.437   5.676  -4.882  0.00  0.00    +0.018 A 
ENDROOT
BRANCH   6   9
ATOM      9  C   UNL     1       0.793   4.948  -6.481  0.00  0.00    +0.391 C 
ATOM     10  O   UNL     1       1.358   3.721  -6.123  0.00  0.00    -0.240 OA
ATOM     11  O   UNL     1       0.914   5.294  -7.678  0.00  0.00    -0.240 OA
ENDBRANCH   6   9
TORSDOF 1
ENDMDL
MODEL 5
REMARK VINA RESULT:      -4.9      6.683      7.957
REMARK  Name = 
REMARK  1 active torsions:
REMARK  status: ('A' for Active; 'I' for Inactive)
REMARK    1  A    between atoms: C_5  and  C_6
REMARK                            x       y       z     vdW  Elec       q    Type
REMARK                         _______ _______ _______ _____ _____    ______ ____
ROOT
ATOM      1  N   UNL     1      -2.843   6.359  -5.954  0.00  0.00    -0.128 NA
ATOM      2  C   UNL     1      -1.462   5.990  -5.903  0.00  0.00    +0.092 A 
ATOM      3  C   UNL     1      -0.824   5.403  -6.989  0.00  0.00    +0.060 A 
ATOM      4  C   UNL     1       0.517   5.668  -7.231  0.00  0.00    +0.203 A 
ATOM      5  O   UNL     1       1.214   5.057  -8.272  0.00  0.00    -0.286 OA
ATOM      6  C   UNL     1       1.228   6.490  -6.366  0.00  0.00    +0.119 A 
ATOM      7  C   UNL     1       0.688   6.796  -5.137  0.00  0.00    +0.011 A 
ATOM      8  C   UNL     1      -0.624   6.420  -4.882  0.00  0.00    +0.018 A 
ENDROOT
BRANCH   6   9
ATOM      9  C   UNL     1       2.314   7.316  -6.902  0.00  0.00    +0.391 C 
ATOM     10  O   UNL     1       2.064   8.275  -7.887  0.00  0.00    -0.240 OA
ATOM     11  O   UNL     1       3.410   7.399  -6.303  0.00  0.00    -0.240 OA
ENDBRANCH   6   9
TORSDOF 1
ENDMDL
MODEL 6
REMARK VINA RESULT:      -4.9      2.853      3.477
REMARK  Name = 
REMARK  1 active torsions:
REMARK  status: ('A' for Active; 'I' for Inactive)
REMARK    1  A    between atoms: C_5  and  C_6
REMARK                            x       y       z     vdW  Elec       q    Type
REMARK                         _______ _______ _______ _____ _____    ______ ____
ROOT
ATOM      1  N   UNL     1       7.451   6.368  -9.594  0.00  0.00    -0.128 NA
ATOM      2  C   UNL     1       7.424   5.750 -10.884  0.00  0.00    +0.092 A 
ATOM      3  C   UNL     1       6.238   5.309 -11.457  0.00  0.00    +0.060 A 
ATOM      4  C   UNL     1       6.068   5.371 -12.833  0.00  0.00    +0.203 A 
ATOM      5  O   UNL     1       4.920   4.887 -13.459  0.00  0.00    -0.286 OA
ATOM      6  C   UNL     1       7.100   5.838 -13.638  0.00  0.00    +0.119 A 
ATOM      7  C   UNL     1       8.363   5.960 -13.105  0.00  0.00    +0.011 A 
ATOM      8  C   UNL     1       8.521   5.784 -11.737  0.00  0.00    +0.018 A 
ENDROOT
BRANCH   6   9
ATOM      9  C   UNL     1       6.768   6.549 -14.877  0.00  0.00    +0.391 C 
ATOM     10  O   UNL     1       6.323   7.873 -14.845  0.00  0.00    -0.240 OA
ATOM     11  O   UNL     1       7.147   6.111 -15.986  0.00  0.00    -0.240 OA
ENDBRANCH   6   9
TORSDOF 1
ENDMDL
MODEL 7
REMARK VINA RESULT:      -4.9      4.228      5.179
REMARK  Name = 
REMARK  1 active torsions:
REMARK  status: ('A' for Active; 'I' for Inactive)
REMARK    1  A    between atoms: C_5  and  C_6
REMARK                            x       y       z     vdW  Elec       q    Type
REMARK                         _______ _______ _______ _____ _____    ______ ____
ROOT
ATOM      1  N   UNL     1       7.369   6.056  -9.395  0.00  0.00    -0.128 NA
ATOM      2  C   UNL     1       5.988   5.689  -9.469  0.00  0.00    +0.092 A 
ATOM      3  C   UNL     1       5.297   5.224  -8.358  0.00  0.00    +0.060 A 
ATOM      4  C   UNL     1       3.949   5.520  -8.207  0.00  0.00    +0.203 A 
ATOM      5  O   UNL     1       3.199   5.027  -7.140  0.00  0.00    -0.286 OA
ATOM      6  C   UNL     1       3.285   6.249  -9.186  0.00  0.00    +0.119 A 
ATOM      7  C   UNL     1       3.882   6.420 -10.414  0.00  0.00    +0.011 A 
ATOM      8  C   UNL     1       5.201   6.013 -10.568  0.00  0.00    +0.018 A 
ENDROOT
BRANCH   6   9
ATOM      9  C   UNL     1       2.184   7.133  -8.790  0.00  0.00    +0.391 C 
ATOM     10  O   UNL     1       2.403   8.202  -7.918  0.00  0.00    -0.240 OA
ATOM     11  O   UNL     1       1.111   7.144  -9.433  0.00  0.00    -0.240 OA
ENDBRANCH   6   9
TORSDOF 1
ENDMDL
MODEL 8
REMARK VINA RESULT:      -4.8      7.272      8.652
REMARK  Name = 
REMARK  1 active torsions:
REMARK  status: ('A' for Active; 'I' for Inactive)
REMARK    1  A    between atoms: C_5  and  C_6
REMARK                            x       y       z     vdW  Elec       q    Type
REMARK                         _______ _______ _______ _____ _____    ______ ____
ROOT
ATOM      1  N   UNL     1      -2.907   5.462  -4.001  0.00  0.00    -0.128 NA
ATOM      2  C   UNL     1      -2.000   5.913  -5.012  0.00  0.00    +0.092 A 
ATOM      3  C   UNL     1      -0.798   6.530  -4.690  0.00  0.00    +0.060 A 
ATOM      4  C   UNL     1       0.315   6.343  -5.499  0.00  0.00    +0.203 A 
ATOM      5  O   UNL     1       1.526   6.988  -5.250  0.00  0.00    -0.286 OA
ATOM      6  C   UNL     1       0.214   5.570  -6.648  0.00  0.00    +0.119 A 
ATOM      7  C   UNL     1      -1.034   5.239  -7.126  0.00  0.00    +0.011 A 
ATOM      8  C   UNL     1      -2.140   5.539  -6.343  0.00  0.00    +0.018 A 
ENDROOT
BRANCH   6   9
ATOM      9  C   UNL     1       1.383   4.806  -7.096  0.00  0.00    +0.391 C 
ATOM     10  O   UNL     1       1.885   3.752  -6.329  0.00  0.00    -0.240 OA
ATOM     11  O   UNL     1       1.773   4.872  -8.283  0.00  0.00    -0.240 OA
ENDBRANCH   6   9
TORSDOF 1
ENDMDL
MODEL 9
REMARK VINA RESULT:      -4.8      2.040      2.820
REMARK  Name = 
REMARK  1 active torsions:
REMARK  status: ('A' for Active; 'I' for Inactive)
REMARK    1  A    between atoms: C_5  and  C_6
REMARK                            x       y       z     vdW  Elec       q    Type
REMARK                         _______ _______ _______ _____ _____    ______ ____
ROOT
ATOM      1  N   UNL     1       3.211   5.523  -7.790  0.00  0.00    -0.128 NA
ATOM      2  C   UNL     1       4.237   5.193  -8.731  0.00  0.00    +0.092 A 
ATOM      3  C   UNL     1       3.971   5.079 -10.090  0.00  0.00    +0.060 A 
ATOM      4  C   UNL     1       4.935   5.446 -11.018  0.00  0.00    +0.203 A 
ATOM      5  O   UNL     1       4.737   5.294 -12.390  0.00  0.00    -0.286 OA
ATOM      6  C   UNL     1       6.178   5.892 -10.586  0.00  0.00    +0.119 A 
ATOM      7  C   UNL     1       6.542   5.694  -9.274  0.00  0.00    +0.011 A 
ATOM      8  C   UNL     1       5.583   5.220  -8.388  0.00  0.00    +0.018 A 
ENDROOT
BRANCH   6   9
ATOM      9  C   UNL     1       6.896   6.884 -11.392  0.00  0.00    +0.391 C 
ATOM     10  O   UNL     1       6.540   8.235 -11.348  0.00  0.00    -0.240 OA
ATOM     11  O   UNL     1       8.009   6.613 -11.898  0.00  0.00    -0.240 OA
ENDBRANCH   6   9
TORSDOF 1
ENDMDL
