MODEL 1
REMARK VINA RESULT:      -9.4      0.000      0.000
REMARK  Name = 
REMARK  2 active torsions:
REMARK  status: ('A' for Active; 'I' for Inactive)
REMARK    1  A    between atoms: C_2  and  C_10
REMARK    2  A    between atoms: C_3  and  C_4
REMARK                            x       y       z     vdW  Elec       q    Type
REMARK                         _______ _______ _______ _____ _____    ______ ____
ROOT
ATOM      1  C   UNL     1       1.699   5.877  -5.341  0.00  0.00    +0.116 C 
ATOM      2  N   UNL     1       2.811   6.977  -5.030  0.00  0.00    -0.203 NA
ATOM      3  C   UNL     1       3.934   6.235  -4.530  0.00  0.00    +0.244 C 
ATOM      4  O   UNL     1       5.122   6.457  -4.920  0.00  0.00    -0.273 OA
ATOM      5  C   UNL     1       3.690   5.865  -3.095  0.00  0.00    +0.120 C 
ATOM      6  C   UNL     1       4.576   7.141  -2.449  0.00  0.00    +0.167 C 
ATOM      7  O   UNL     1       3.472   8.142  -2.854  0.00  0.00    -0.222 OA
ATOM      8  C   UNL     1       4.028   6.881  -0.898  0.00  0.00    +0.080 C 
ATOM      9  C   UNL     1       3.898   5.468  -0.666  0.00  0.00    +0.010 C 
ATOM     10  C   UNL     1       5.340   7.274  -0.208  0.00  0.00    +0.010 C 
ATOM     11  C   UNL     1       2.958   7.832  -0.614  0.00  0.00    +0.154 C 
ATOM     12  O   UNL     1       3.435   8.970  -0.687  0.00  0.00    -0.296 OA
ATOM     13  C   UNL     1       2.435   7.361   0.835  0.00  0.00    +0.088 C 
ATOM     14  C   UNL     1       3.134   8.579   1.689  0.00  0.00    +0.010 C 
ATOM     15  C   UNL     1       0.905   8.178   0.798  0.00  0.00    +0.159 C 
ATOM     16  O   UNL     1       1.421   9.445   0.147  0.00  0.00    -0.223 OA
ATOM     17  C   UNL     1       0.455   7.435  -0.690  0.00  0.00    +0.031 C 
ATOM     18  C   UNL     1       0.260   5.980   0.027  0.00  0.00    +0.003 C 
ATOM     19  C   UNL     1      -1.124   7.795  -0.488  0.00  0.00    +0.003 C 
ATOM     20  C   UNL     1      -1.856   6.925  -1.513  0.00  0.00    +0.003 C 
ATOM     21  C   UNL     1      -1.065   6.660  -2.719  0.00  0.00    +0.030 C 
ATOM     22  C   UNL     1      -1.740   6.005  -3.760  0.00  0.00    +0.118 C 
ATOM     23  C   UNL     1      -0.704   5.631  -4.998  0.00  0.00    +0.142 C 
ATOM     24  C   UNL     1      -3.013   5.280  -3.830  0.00  0.00    +0.032 C 
ATOM     25  O   UNL     1      -1.777   6.860  -5.148  0.00  0.00    -0.356 OA
ATOM     26  C   UNL     1       0.546   6.684  -4.448  0.00  0.00    +0.058 C 
ENDROOT
BRANCH   1  28
ATOM     27  C   UNL     1       1.364   7.252  -6.851  0.00  0.00    +0.028 C 
ATOM     28  C   UNL     1       1.246   6.690  -6.694  0.00  0.00    -0.023 C 
ATOM     29  C   UNL     1       1.017   5.859  -7.699  0.00  0.00    +0.013 C 
BRANCH  29  30
ATOM     30  C   UNL     1       1.437   6.281  -9.044  0.00  0.00    +0.087 A 
ATOM     31  N   UNL     1       0.643   7.070  -9.753  0.00  0.00    -0.243 NA
ATOM     32  C   UNL     1       0.631   6.812 -11.053  0.00  0.00    +0.089 A 
ATOM     33  C   UNL     1      -0.352   7.502 -11.945  0.00  0.00    +0.059 C 
ATOM     34  S   UNL     1       2.200   6.179 -11.316  0.00  0.00    -0.070 S 
ATOM     35  C   UNL     1       2.673   6.116  -9.660  0.00  0.00    +0.056 A 
ENDBRANCH  29  30
ENDBRANCH   1  28
TORSDOF 2
ENDMDL
MODEL 2
REMARK VINA RESULT:      -9.0      0.841      1.179
REMARK  Name = 
REMARK  2 active torsions:
REMARK  status: ('A' for Active; 'I' for Inactive)
REMARK    1  A    between atoms: C_2  and  C_10
REMARK    2  A    between atoms: C_3  and  C_4
REMARK                            x       y       z     vdW  Elec       q    Type
REMARK                         _______ _______ _______ _____ _____    ______ ____
ROOT
ATOM      1  C   UNL     1       1.361   5.670  -4.964  0.00  0.00    +0.116 C 
ATOM      2  N   UNL     1       2.524   6.753  -4.828  0.00  0.00    -0.203 NA
ATOM      3  C   UNL     1       3.656   6.020  -4.336  0.00  0.00    +0.244 C 
ATOM      4  O   UNL     1       4.821   6.163  -4.821  0.00  0.00    -0.273 OA
ATOM      5  C   UNL     1       3.499   5.791  -2.860  0.00  0.00    +0.120 C 
ATOM      6  C   UNL     1       4.464   7.088  -2.395  0.00  0.00    +0.167 C 
ATOM      7  O   UNL     1       3.365   8.086  -2.818  0.00  0.00    -0.222 OA
ATOM      8  C   UNL     1       4.016   6.989  -0.794  0.00  0.00    +0.080 C 
ATOM      9  C   UNL     1       3.860   5.609  -0.423  0.00  0.00    +0.010 C 
ATOM     10  C   UNL     1       5.382   7.397  -0.230  0.00  0.00    +0.010 C 
ATOM     11  C   UNL     1       2.995   8.000  -0.530  0.00  0.00    +0.154 C 
ATOM     12  O   UNL     1       3.500   9.108  -0.739  0.00  0.00    -0.296 OA
ATOM     13  C   UNL     1       2.559   7.681   0.987  0.00  0.00    +0.088 C 
ATOM     14  C   UNL     1       3.350   8.946   1.677  0.00  0.00    +0.010 C 
ATOM     15  C   UNL     1       1.054   8.546   0.974  0.00  0.00    +0.159 C 
ATOM     16  O   UNL     1       1.562   9.729   0.176  0.00  0.00    -0.223 OA
ATOM     17  C   UNL     1       0.483   7.687  -0.406  0.00  0.00    +0.031 C 
ATOM     18  C   UNL     1       0.294   6.311   0.454  0.00  0.00    +0.003 C 
ATOM     19  C   UNL     1      -1.067   8.119  -0.137  0.00  0.00    +0.003 C 
ATOM     20  C   UNL     1      -1.893   7.187  -1.027  0.00  0.00    +0.003 C 
ATOM     21  C   UNL     1      -1.193   6.785  -2.251  0.00  0.00    +0.030 C 
ATOM     22  C   UNL     1      -1.957   6.063  -3.181  0.00  0.00    +0.118 C 
ATOM     23  C   UNL     1      -1.019   5.542  -4.443  0.00  0.00    +0.142 C 
ATOM     24  C   UNL     1      -3.253   5.381  -3.101  0.00  0.00    +0.032 C 
ATOM     25  O   UNL     1      -2.063   6.790  -4.637  0.00  0.00    -0.356 OA
ATOM     26  C   UNL     1       0.296   6.595  -4.076  0.00  0.00    +0.058 C 
ENDROOT
BRANCH   1  28
ATOM     27  C   UNL     1       0.991   6.900  -6.587  0.00  0.00    +0.028 C 
ATOM     28  C   UNL     1       0.842   6.372  -6.353  0.00  0.00    -0.023 C 
ATOM     29  C   UNL     1       0.436   5.464  -7.228  0.00  0.00    +0.013 C 
BRANCH  29  30
ATOM     30  C   UNL     1       0.746   5.693  -8.647  0.00  0.00    +0.087 A 
ATOM     31  N   UNL     1       1.947   5.373  -9.106  0.00  0.00    -0.243 NA
ATOM     32  C   UNL     1       2.425   6.206 -10.020  0.00  0.00    +0.089 A 
ATOM     33  C   UNL     1       3.838   6.071 -10.492  0.00  0.00    +0.059 C 
ATOM     34  S   UNL     1       0.997   6.794 -10.763  0.00  0.00    -0.070 S 
ATOM     35  C   UNL     1      -0.116   6.050  -9.678  0.00  0.00    +0.056 A 
ENDBRANCH  29  30
ENDBRANCH   1  28
TORSDOF 2
ENDMDL
MODEL 3
REMARK VINA RESULT:      -8.1      1.415      1.822
REMARK  Name = 
REMARK  2 active torsions:
REMARK  status: ('A' for Active; 'I' for Inactive)
REMARK    1  A    between atoms: C_2  and  C_10
REMARK    2  A    between atoms: C_3  and  C_4
REMARK                            x       y       z     vdW  Elec       q    Type
REMARK                         _______ _______ _______ _____ _____    ______ ____
ROOT
ATOM      1  C   UNL     1       1.925   5.833  -4.120  0.00  0.00    +0.116 C 
ATOM      2  N   UNL     1       2.921   7.070  -3.964  0.00  0.00    -0.203 NA
ATOM      3  C   UNL     1       4.063   6.539  -3.273  0.00  0.00    +0.244 C 
ATOM      4  O   UNL     1       5.254   6.793  -3.635  0.00  0.00    -0.273 OA
ATOM      5  C   UNL     1       3.750   6.419  -1.810  0.00  0.00    +0.120 C 
ATOM      6  C   UNL     1       4.484   7.869  -1.372  0.00  0.00    +0.167 C 
ATOM      7  O   UNL     1       3.334   8.671  -2.017  0.00  0.00    -0.222 OA
ATOM      8  C   UNL     1       3.852   7.850   0.170  0.00  0.00    +0.080 C 
ATOM      9  C   UNL     1       3.820   6.498   0.659  0.00  0.00    +0.010 C 
ATOM     10  C   UNL     1       5.077   8.483   0.841  0.00  0.00    +0.010 C 
ATOM     11  C   UNL     1       2.692   8.735   0.211  0.00  0.00    +0.154 C 
ATOM     12  O   UNL     1       3.080   9.878  -0.052  0.00  0.00    -0.296 OA
ATOM     13  C   UNL     1       2.109   8.493   1.693  0.00  0.00    +0.088 C 
ATOM     14  C   UNL     1       2.647   9.907   2.336  0.00  0.00    +0.010 C 
ATOM     15  C   UNL     1       0.524   9.146   1.420  0.00  0.00    +0.159 C 
ATOM     16  O   UNL     1       0.981  10.312   0.568  0.00  0.00    -0.223 OA
ATOM     17  C   UNL     1       0.240   8.102   0.078  0.00  0.00    +0.031 C 
ATOM     18  C   UNL     1       0.114   6.793   1.047  0.00  0.00    +0.003 C 
ATOM     19  C   UNL     1      -1.372   8.346   0.124  0.00  0.00    +0.003 C 
ATOM     20  C   UNL     1      -1.960   7.239  -0.755  0.00  0.00    +0.003 C 
ATOM     21  C   UNL     1      -1.067   6.829  -1.845  0.00  0.00    +0.030 C 
ATOM     22  C   UNL     1      -1.614   5.934  -2.776  0.00  0.00    +0.118 C 
ATOM     23  C   UNL     1      -0.468   5.435  -3.864  0.00  0.00    +0.142 C 
ATOM     24  C   UNL     1      -2.817   5.095  -2.776  0.00  0.00    +0.032 C 
ATOM     25  O   UNL     1      -1.623   6.512  -4.302  0.00  0.00    -0.356 OA
ATOM     26  C   UNL     1       0.653   6.682  -3.458  0.00  0.00    +0.058 C 
ENDROOT
BRANCH   1  28
ATOM     27  C   UNL     1       1.612   6.860  -5.889  0.00  0.00    +0.028 C 
ATOM     28  C   UNL     1       1.504   6.337  -5.624  0.00  0.00    -0.023 C 
ATOM     29  C   UNL     1       1.339   5.312  -6.445  0.00  0.00    +0.013 C 
BRANCH  29  30
ATOM     30  C   UNL     1       1.799   5.465  -7.833  0.00  0.00    +0.087 A 
ATOM     31  N   UNL     1       3.029   5.092  -8.152  0.00  0.00    -0.243 NA
ATOM     32  C   UNL     1       3.624   5.868  -9.048  0.00  0.00    +0.089 A 
ATOM     33  C   UNL     1       5.072   5.673  -9.365  0.00  0.00    +0.059 C 
ATOM     34  S   UNL     1       2.298   6.458  -9.959  0.00  0.00    -0.070 S 
ATOM     35  C   UNL     1       1.058   5.797  -8.963  0.00  0.00    +0.056 A 
ENDBRANCH  29  30
ENDBRANCH   1  28
TORSDOF 2
ENDMDL
MODEL 4
REMARK VINA RESULT:      -7.9      3.656      8.465
REMARK  Name = 
REMARK  2 active torsions:
REMARK  status: ('A' for Active; 'I' for Inactive)
REMARK    1  A    between atoms: C_2  and  C_10
REMARK    2  A    between atoms: C_3  and  C_4
REMARK                            x       y       z     vdW  Elec       q    Type
REMARK                         _______ _______ _______ _____ _____    ______ ____
ROOT
ATOM      1  C   UNL     1      -0.103   6.090  -1.368  0.00  0.00    +0.116 C 
ATOM      2  N   UNL     1      -0.960   6.739  -2.547  0.00  0.00    -0.203 NA
ATOM      3  C   UNL     1      -1.562   5.624  -3.223  0.00  0.00    +0.244 C 
ATOM      4  O   UNL     1      -2.786   5.616  -3.562  0.00  0.00    -0.273 OA
ATOM      5  C   UNL     1      -0.547   4.976  -4.120  0.00  0.00    +0.120 C 
ATOM      6  C   UNL     1      -1.049   5.763  -5.520  0.00  0.00    +0.167 C 
ATOM      7  O   UNL     1      -0.434   7.089  -5.022  0.00  0.00    -0.222 OA
ATOM      8  C   UNL     1       0.273   5.267  -6.404  0.00  0.00    +0.080 C 
ATOM      9  C   UNL     1       0.632   3.929  -6.021  0.00  0.00    +0.010 C 
ATOM     10  C   UNL     1      -0.483   5.110  -7.729  0.00  0.00    +0.010 C 
ATOM     11  C   UNL     1       1.238   6.362  -6.456  0.00  0.00    +0.154 C 
ATOM     12  O   UNL     1       0.700   7.312  -7.034  0.00  0.00    -0.296 OA
ATOM     13  C   UNL     1       2.502   5.690  -7.194  0.00  0.00    +0.088 C 
ATOM     14  C   UNL     1       2.275   6.419  -8.650  0.00  0.00    +0.010 C 
ATOM     15  C   UNL     1       3.689   6.864  -6.720  0.00  0.00    +0.159 C 
ATOM     16  O   UNL     1       2.794   8.072  -6.901  0.00  0.00    -0.223 OA
ATOM     17  C   UNL     1       3.323   6.674  -5.047  0.00  0.00    +0.031 C 
ATOM     18  C   UNL     1       4.002   5.189  -5.006  0.00  0.00    +0.003 C 
ATOM     19  C   UNL     1       4.719   7.374  -4.576  0.00  0.00    +0.003 C 
ATOM     20  C   UNL     1       4.852   7.022  -3.092  0.00  0.00    +0.003 C 
ATOM     21  C   UNL     1       3.559   6.875  -2.414  0.00  0.00    +0.030 C 
ATOM     22  C   UNL     1       3.617   6.712  -1.022  0.00  0.00    +0.118 C 
ATOM     23  C   UNL     1       2.112   6.408  -0.397  0.00  0.00    +0.142 C 
ATOM     24  C   UNL     1       4.705   6.393  -0.093  0.00  0.00    +0.032 C 
ATOM     25  O   UNL     1       2.819   7.873  -0.200  0.00  0.00    -0.356 OA
ATOM     26  C   UNL     1       1.274   6.915  -1.816  0.00  0.00    +0.058 C 
ENDROOT
BRANCH   1  28
ATOM     27  C   UNL     1      -0.894   7.773  -0.460  0.00  0.00    +0.028 C 
ATOM     28  C   UNL     1      -0.530   7.312  -0.359  0.00  0.00    -0.023 C 
ATOM     29  C   UNL     1      -0.420   6.948   0.909  0.00  0.00    +0.013 C 
BRANCH  29  30
ATOM     30  C   UNL     1      -1.443   7.427   1.851  0.00  0.00    +0.087 A 
ATOM     31  N   UNL     1      -1.982   6.574   2.710  0.00  0.00    -0.243 NA
ATOM     32  C   UNL     1      -3.271   6.772   2.944  0.00  0.00    +0.089 A 
ATOM     33  C   UNL     1      -4.048   5.779   3.750  0.00  0.00    +0.059 C 
ATOM     34  S   UNL     1      -3.433   8.460   2.702  0.00  0.00    -0.070 S 
ATOM     35  C   UNL     1      -1.836   8.735   2.116  0.00  0.00    +0.056 A 
ENDBRANCH  29  30
ENDBRANCH   1  28
TORSDOF 2
ENDMDL
MODEL 5
REMARK VINA RESULT:      -7.6      1.755      2.639
REMARK  Name = 
REMARK  2 active torsions:
REMARK  status: ('A' for Active; 'I' for Inactive)
REMARK    1  A    between atoms: C_2  and  C_10
REMARK    2  A    between atoms: C_3  and  C_4
REMARK                            x       y       z     vdW  Elec       q    Type
REMARK                         _______ _______ _______ _____ _____    ______ ____
ROOT
ATOM      1  C   UNL     1       1.277   5.340  -7.560  0.00  0.00    +0.116 C 
ATOM      2  N   UNL     1       2.502   6.354  -7.436  0.00  0.00    -0.203 NA
ATOM      3  C   UNL     1       3.663   5.517  -7.313  0.00  0.00    +0.244 C 
ATOM      4  O   UNL     1       4.728   5.733  -7.970  0.00  0.00    -0.273 OA
ATOM      5  C   UNL     1       3.759   5.000  -5.907  0.00  0.00    +0.120 C 
ATOM      6  C   UNL     1       4.861   6.161  -5.387  0.00  0.00    +0.167 C 
ATOM      7  O   UNL     1       3.759   7.243  -5.398  0.00  0.00    -0.222 OA
ATOM      8  C   UNL     1       4.700   5.752  -3.780  0.00  0.00    +0.080 C 
ATOM      9  C   UNL     1       4.539   4.329  -3.661  0.00  0.00    +0.010 C 
ATOM     10  C   UNL     1       6.166   6.015  -3.412  0.00  0.00    +0.010 C 
ATOM     11  C   UNL     1       3.800   6.708  -3.142  0.00  0.00    +0.154 C 
ATOM     12  O   UNL     1       4.319   7.827  -3.223  0.00  0.00    -0.296 OA
ATOM     13  C   UNL     1       3.624   6.100  -1.660  0.00  0.00    +0.088 C 
ATOM     14  C   UNL     1       4.593   7.187  -0.898  0.00  0.00    +0.010 C 
ATOM     15  C   UNL     1       2.191   6.976  -1.227  0.00  0.00    +0.159 C 
ATOM     16  O   UNL     1       2.611   8.286  -1.862  0.00  0.00    -0.223 OA
ATOM     17  C   UNL     1       1.336   6.421  -2.616  0.00  0.00    +0.031 C 
ATOM     18  C   UNL     1       1.230   4.905  -2.019  0.00  0.00    +0.003 C 
ATOM     19  C   UNL     1      -0.115   6.818  -1.986  0.00  0.00    +0.003 C 
ATOM     20  C   UNL     1      -1.136   6.098  -2.870  0.00  0.00    +0.003 C 
ATOM     21  C   UNL     1      -0.688   5.936  -4.257  0.00  0.00    +0.030 C 
ATOM     22  C   UNL     1      -1.644   5.428  -5.150  0.00  0.00    +0.118 C 
ATOM     23  C   UNL     1      -0.975   5.153  -6.642  0.00  0.00    +0.142 C 
ATOM     24  C   UNL     1      -2.939   4.767  -4.965  0.00  0.00    +0.032 C 
ATOM     25  O   UNL     1      -1.968   6.433  -6.394  0.00  0.00    -0.356 OA
ATOM     26  C   UNL     1       0.439   6.088  -6.328  0.00  0.00    +0.058 C 
ENDROOT
BRANCH   1  28
ATOM     27  C   UNL     1       0.707   6.866  -8.836  0.00  0.00    +0.028 C 
ATOM     28  C   UNL     1       0.557   6.315  -8.667  0.00  0.00    -0.023 C 
ATOM     29  C   UNL     1      -0.104   5.609  -9.571  0.00  0.00    +0.013 C 
BRANCH  29  30
ATOM     30  C   UNL     1      -0.067   6.075 -10.965  0.00  0.00    +0.087 A 
ATOM     31  N   UNL     1       0.314   5.237 -11.918  0.00  0.00    -0.243 NA
ATOM     32  C   UNL     1       1.028   5.795 -12.885  0.00  0.00    +0.089 A 
ATOM     33  C   UNL     1       1.676   4.940 -13.928  0.00  0.00    +0.059 C 
ATOM     34  S   UNL     1       0.436   7.403 -12.898  0.00  0.00    -0.070 S 
ATOM     35  C   UNL     1      -0.558   7.263 -11.497  0.00  0.00    +0.056 A 
ENDBRANCH  29  30
ENDBRANCH   1  28
TORSDOF 2
ENDMDL
MODEL 6
REMARK VINA RESULT:      -7.4      3.572      8.373
REMARK  Name = 
REMARK  2 active torsions:
REMARK  status: ('A' for Active; 'I' for Inactive)
REMARK    1  A    between atoms: C_2  and  C_10
REMARK    2  A    between atoms: C_3  and  C_4
REMARK                            x       y       z     vdW  Elec       q    Type
REMARK                         _______ _______ _______ _____ _____    ______ ____
ROOT
ATOM      1  C   UNL     1      -0.079   5.628  -1.519  0.00  0.00    +0.116 C 
ATOM      2  N   UNL     1      -0.695   6.747  -2.474  0.00  0.00    -0.203 NA
ATOM      3  C   UNL     1      -1.672   6.057  -3.269  0.00  0.00    +0.244 C 
ATOM      4  O   UNL     1      -2.833   6.529  -3.478  0.00  0.00    -0.273 OA
ATOM      5  C   UNL     1      -0.980   5.297  -4.363  0.00  0.00    +0.120 C 
ATOM      6  C   UNL     1      -1.225   6.467  -5.547  0.00  0.00    +0.167 C 
ATOM      7  O   UNL     1      -0.167   7.382  -4.892  0.00  0.00    -0.222 OA
ATOM      8  C   UNL     1      -0.191   5.740  -6.633  0.00  0.00    +0.080 C 
ATOM      9  C   UNL     1      -0.310   4.311  -6.527  0.00  0.00    +0.010 C 
ATOM     10  C   UNL     1      -1.001   6.111  -7.881  0.00  0.00    +0.010 C 
ATOM     11  C   UNL     1       1.094   6.433  -6.592  0.00  0.00    +0.154 C 
ATOM     12  O   UNL     1       0.901   7.604  -6.940  0.00  0.00    -0.296 OA
ATOM     13  C   UNL     1       2.016   5.535  -7.560  0.00  0.00    +0.088 C 
ATOM     14  C   UNL     1       2.006   6.570  -8.837  0.00  0.00    +0.010 C 
ATOM     15  C   UNL     1       3.554   6.123  -7.013  0.00  0.00    +0.159 C 
ATOM     16  O   UNL     1       3.132   7.572  -6.889  0.00  0.00    -0.223 OA
ATOM     17  C   UNL     1       3.204   5.741  -5.369  0.00  0.00    +0.031 C 
ATOM     18  C   UNL     1       3.321   4.137  -5.655  0.00  0.00    +0.003 C 
ATOM     19  C   UNL     1       4.772   5.822  -4.929  0.00  0.00    +0.003 C 
ATOM     20  C   UNL     1       4.825   5.160  -3.549  0.00  0.00    +0.003 C 
ATOM     21  C   UNL     1       3.588   5.326  -2.779  0.00  0.00    +0.030 C 
ATOM     22  C   UNL     1       3.633   4.881  -1.450  0.00  0.00    +0.118 C 
ATOM     23  C   UNL     1       2.140   4.984  -0.738  0.00  0.00    +0.142 C 
ATOM     24  C   UNL     1       4.574   4.037  -0.705  0.00  0.00    +0.032 C 
ATOM     25  O   UNL     1       3.321   6.056  -0.362  0.00  0.00    -0.356 OA
ATOM     26  C   UNL     1       1.483   6.014  -1.955  0.00  0.00    +0.058 C 
ENDROOT
BRANCH   1  28
ATOM     27  C   UNL     1       0.231   7.240  -0.258  0.00  0.00    +0.028 C 
ATOM     28  C   UNL     1      -0.015   6.698  -0.276  0.00  0.00    -0.023 C 
ATOM     29  C   UNL     1      -1.012   6.505   0.575  0.00  0.00    +0.013 C 
BRANCH  29  30
ATOM     30  C   UNL     1      -1.642   7.692   1.171  0.00  0.00    +0.087 A 
ATOM     31  N   UNL     1      -0.903   8.763   1.418  0.00  0.00    -0.243 NA
ATOM     32  C   UNL     1      -1.227   9.411   2.528  0.00  0.00    +0.089 A 
ATOM     33  C   UNL     1      -0.365  10.528   3.025  0.00  0.00    +0.059 C 
ATOM     34  S   UNL     1      -2.902   9.077   2.671  0.00  0.00    -0.070 S 
ATOM     35  C   UNL     1      -2.995   7.950   1.372  0.00  0.00    +0.056 A 
ENDBRANCH  29  30
ENDBRANCH   1  28
TORSDOF 2
ENDMDL
MODEL 7
REMARK VINA RESULT:      -7.3      3.714      8.171
REMARK  Name = 
REMARK  2 active torsions:
REMARK  status: ('A' for Active; 'I' for Inactive)
REMARK    1  A    between atoms: C_2  and  C_10
REMARK    2  A    between atoms: C_3  and  C_4
REMARK                            x       y       z     vdW  Elec       q    Type
REMARK                         _______ _______ _______ _____ _____    ______ ____
ROOT
ATOM      1  C   UNL     1       1.589   6.839   0.572  0.00  0.00    +0.116 C 
ATOM      2  N   UNL     1       0.350   7.834   0.427  0.00  0.00    -0.203 NA
ATOM      3  C   UNL     1      -0.802   7.040   0.753  0.00  0.00    +0.244 C 
ATOM      4  O   UNL     1      -1.720   7.460   1.524  0.00  0.00    -0.273 OA
ATOM      5  C   UNL     1      -1.166   6.181  -0.423  0.00  0.00    +0.120 C 
ATOM      6  C   UNL     1      -2.364   7.210  -1.005  0.00  0.00    +0.167 C 
ATOM      7  O   UNL     1      -1.295   8.215  -1.489  0.00  0.00    -0.222 OA
ATOM      8  C   UNL     1      -2.517   6.394  -2.449  0.00  0.00    +0.080 C 
ATOM      9  C   UNL     1      -2.363   4.983  -2.222  0.00  0.00    +0.010 C 
ATOM     10  C   UNL     1      -4.029   6.610  -2.582  0.00  0.00    +0.010 C 
ATOM     11  C   UNL     1      -1.772   7.117  -3.476  0.00  0.00    +0.154 C 
ATOM     12  O   UNL     1      -2.279   8.238  -3.591  0.00  0.00    -0.296 OA
ATOM     13  C   UNL     1      -1.884   6.141  -4.753  0.00  0.00    +0.088 C 
ATOM     14  C   UNL     1      -2.998   7.032  -5.570  0.00  0.00    +0.010 C 
ATOM     15  C   UNL     1      -0.575   6.819  -5.669  0.00  0.00    +0.159 C 
ATOM     16  O   UNL     1      -0.879   8.264  -5.328  0.00  0.00    -0.223 OA
ATOM     17  C   UNL     1       0.544   6.609  -4.375  0.00  0.00    +0.031 C 
ATOM     18  C   UNL     1       0.550   4.987  -4.565  0.00  0.00    +0.003 C 
ATOM     19  C   UNL     1       1.837   6.773  -5.355  0.00  0.00    +0.003 C 
ATOM     20  C   UNL     1       3.021   6.266  -4.528  0.00  0.00    +0.003 C 
ATOM     21  C   UNL     1       2.858   6.486  -3.087  0.00  0.00    +0.030 C 
ATOM     22  C   UNL     1       3.977   6.188  -2.295  0.00  0.00    +0.118 C 
ATOM     23  C   UNL     1       3.618   6.334  -0.683  0.00  0.00    +0.142 C 
ATOM     24  C   UNL     1       5.219   5.452  -2.548  0.00  0.00    +0.032 C 
ATOM     25  O   UNL     1       4.526   7.467  -1.443  0.00  0.00    -0.356 OA
ATOM     26  C   UNL     1       2.157   7.211  -0.950  0.00  0.00    +0.058 C 
ENDROOT
BRANCH   1  28
ATOM     27  C   UNL     1       3.064   8.020   1.417  0.00  0.00    +0.028 C 
ATOM     28  C   UNL     1       2.499   8.038   1.225  0.00  0.00    -0.023 C 
ATOM     29  C   UNL     1       2.075   9.230   0.836  0.00  0.00    +0.013 C 
BRANCH  29  30
ATOM     30  C   UNL     1       3.087  10.260   0.555  0.00  0.00    +0.087 A 
ATOM     31  N   UNL     1       3.753  10.805   1.561  0.00  0.00    -0.243 NA
ATOM     32  C   UNL     1       4.014  12.096   1.411  0.00  0.00    +0.089 A 
ATOM     33  C   UNL     1       4.598  12.880   2.544  0.00  0.00    +0.059 C 
ATOM     34  S   UNL     1       4.117  12.253  -0.292  0.00  0.00    -0.070 S 
ATOM     35  C   UNL     1       3.609  10.652  -0.674  0.00  0.00    +0.056 A 
ENDBRANCH  29  30
ENDBRANCH   1  28
TORSDOF 2
ENDMDL
MODEL 8
REMARK VINA RESULT:      -7.0      2.502      5.414
REMARK  Name = 
REMARK  2 active torsions:
REMARK  status: ('A' for Active; 'I' for Inactive)
REMARK    1  A    between atoms: C_2  and  C_10
REMARK    2  A    between atoms: C_3  and  C_4
REMARK                            x       y       z     vdW  Elec       q    Type
REMARK                         _______ _______ _______ _____ _____    ______ ____
ROOT
ATOM      1  C   UNL     1       2.571   6.582  -6.912  0.00  0.00    +0.116 C 
ATOM      2  N   UNL     1       1.323   5.588  -6.903  0.00  0.00    -0.203 NA
ATOM      3  C   UNL     1       0.178   6.433  -7.100  0.00  0.00    +0.244 C 
ATOM      4  O   UNL     1      -0.750   6.138  -7.916  0.00  0.00    -0.273 OA
ATOM      5  C   UNL     1      -0.169   7.114  -5.808  0.00  0.00    +0.120 C 
ATOM      6  C   UNL     1      -1.373   6.023  -5.372  0.00  0.00    +0.167 C 
ATOM      7  O   UNL     1      -0.312   4.948  -5.048  0.00  0.00    -0.222 OA
ATOM      8  C   UNL     1      -1.507   6.621  -3.823  0.00  0.00    +0.080 C 
ATOM      9  C   UNL     1      -1.340   8.049  -3.844  0.00  0.00    +0.010 C 
ATOM     10  C   UNL     1      -3.021   6.403  -3.709  0.00  0.00    +0.010 C 
ATOM     11  C   UNL     1      -0.763   5.750  -2.918  0.00  0.00    +0.154 C 
ATOM     12  O   UNL     1      -1.281   4.629  -2.964  0.00  0.00    -0.296 OA
ATOM     13  C   UNL     1      -0.855   6.531  -1.513  0.00  0.00    +0.088 C 
ATOM     14  C   UNL     1      -1.972   5.542  -0.824  0.00  0.00    +0.010 C 
ATOM     15  C   UNL     1       0.453   5.714  -0.717  0.00  0.00    +0.159 C 
ATOM     16  O   UNL     1       0.131   4.338  -1.261  0.00  0.00    -0.223 OA
ATOM     17  C   UNL     1       1.565   6.100  -1.976  0.00  0.00    +0.031 C 
ATOM     18  C   UNL     1       1.590   7.677  -1.552  0.00  0.00    +0.003 C 
ATOM     19  C   UNL     1       2.863   5.783  -1.041  0.00  0.00    +0.003 C 
ATOM     20  C   UNL     1       4.047   6.394  -1.796  0.00  0.00    +0.003 C 
ATOM     21  C   UNL     1       3.871   6.387  -3.252  0.00  0.00    +0.030 C 
ATOM     22  C   UNL     1       4.987   6.786  -4.002  0.00  0.00    +0.118 C 
ATOM     23  C   UNL     1       4.615   6.880  -5.615  0.00  0.00    +0.142 C 
ATOM     24  C   UNL     1       6.239   7.466  -3.655  0.00  0.00    +0.032 C 
ATOM     25  O   UNL     1       5.516   5.640  -5.035  0.00  0.00    -0.356 OA
ATOM     26  C   UNL     1       3.147   5.988  -5.466  0.00  0.00    +0.058 C 
ENDROOT
BRANCH   1  28
ATOM     27  C   UNL     1       3.299   4.955  -7.965  0.00  0.00    +0.028 C 
ATOM     28  C   UNL     1       3.464   5.482  -7.741  0.00  0.00    -0.023 C 
ATOM     29  C   UNL     1       4.487   6.058  -8.355  0.00  0.00    +0.013 C 
BRANCH  29  30
ATOM     30  C   UNL     1       4.847   5.567  -9.693  0.00  0.00    +0.087 A 
ATOM     31  N   UNL     1       6.117   5.307  -9.967  0.00  0.00    -0.243 NA
ATOM     32  C   UNL     1       6.486   5.615 -11.203  0.00  0.00    +0.089 A 
ATOM     33  C   UNL     1       7.928   5.545 -11.594  0.00  0.00    +0.059 C 
ATOM     34  S   UNL     1       5.028   5.420 -12.080  0.00  0.00    -0.070 S 
ATOM     35  C   UNL     1       4.007   5.145 -10.719  0.00  0.00    +0.056 A 
ENDBRANCH  29  30
ENDBRANCH   1  28
TORSDOF 2
ENDMDL
MODEL 9
REMARK VINA RESULT:      -7.0      5.411      8.837
REMARK  Name = 
REMARK  2 active torsions:
REMARK  status: ('A' for Active; 'I' for Inactive)
REMARK    1  A    between atoms: C_2  and  C_10
REMARK    2  A    between atoms: C_3  and  C_4
REMARK                            x       y       z     vdW  Elec       q    Type
REMARK                         _______ _______ _______ _____ _____    ______ ____
ROOT
ATOM      1  C   UNL     1       4.784   5.379 -13.455  0.00  0.00    +0.116 C 
ATOM      2  N   UNL     1       5.325   6.532 -12.494  0.00  0.00    -0.203 NA
ATOM      3  C   UNL     1       6.225   5.869 -11.592  0.00  0.00    +0.244 C 
ATOM      4  O   UNL     1       7.367   6.344 -11.302  0.00  0.00    -0.273 OA
ATOM      5  C   UNL     1       5.436   5.155 -10.534  0.00  0.00    +0.120 C 
ATOM      6  C   UNL     1       5.586   6.369  -9.379  0.00  0.00    +0.167 C 
ATOM      7  O   UNL     1       4.596   7.263 -10.158  0.00  0.00    -0.222 OA
ATOM      8  C   UNL     1       4.457   5.690  -8.359  0.00  0.00    +0.080 C 
ATOM      9  C   UNL     1       4.574   4.258  -8.400  0.00  0.00    +0.010 C 
ATOM     10  C   UNL     1       5.159   6.107  -7.061  0.00  0.00    +0.010 C 
ATOM     11  C   UNL     1       3.186   6.387  -8.537  0.00  0.00    +0.154 C 
ATOM     12  O   UNL     1       3.357   7.569  -8.220  0.00  0.00    -0.296 OA
ATOM     13  C   UNL     1       2.177   5.531  -7.618  0.00  0.00    +0.088 C 
ATOM     14  C   UNL     1       2.085   6.615  -6.386  0.00  0.00    +0.010 C 
ATOM     15  C   UNL     1       0.696   6.104  -8.319  0.00  0.00    +0.159 C 
ATOM     16  O   UNL     1       1.138   7.545  -8.461  0.00  0.00    -0.223 OA
ATOM     17  C   UNL     1       1.184   5.656  -9.910  0.00  0.00    +0.031 C 
ATOM     18  C   UNL     1       1.030   4.065  -9.573  0.00  0.00    +0.003 C 
ATOM     19  C   UNL     1      -0.340   5.726 -10.487  0.00  0.00    +0.003 C 
ATOM     20  C   UNL     1      -0.279   5.011 -11.839  0.00  0.00    +0.003 C 
ATOM     21  C   UNL     1       1.021   5.142 -12.505  0.00  0.00    +0.030 C 
ATOM     22  C   UNL     1       1.087   4.645 -13.816  0.00  0.00    +0.118 C 
ATOM     23  C   UNL     1       2.636   4.715 -14.400  0.00  0.00    +0.142 C 
ATOM     24  C   UNL     1       0.208   3.777 -14.606  0.00  0.00    +0.032 C 
ATOM     25  O   UNL     1       1.500   5.776 -14.917  0.00  0.00    -0.356 OA
ATOM     26  C   UNL     1       3.194   5.788 -13.171  0.00  0.00    +0.058 C 
ENDROOT
BRANCH   1  28
ATOM     27  C   UNL     1       4.621   6.953 -14.789  0.00  0.00    +0.028 C 
ATOM     28  C   UNL     1       4.837   6.400 -14.740  0.00  0.00    -0.023 C 
ATOM     29  C   UNL     1       5.858   6.120 -15.534  0.00  0.00    +0.013 C 
BRANCH  29  30
ATOM     30  C   UNL     1       6.580   7.246 -16.145  0.00  0.00    +0.087 A 
ATOM     31  N   UNL     1       5.981   8.424 -16.238  0.00  0.00    -0.243 NA
ATOM     32  C   UNL     1       6.261   9.097 -17.346  0.00  0.00    +0.089 A 
ATOM     33  C   UNL     1       5.519  10.355 -17.667  0.00  0.00    +0.059 C 
ATOM     34  S   UNL     1       7.838   8.544 -17.721  0.00  0.00    -0.070 S 
ATOM     35  C   UNL     1       7.921   7.326 -16.505  0.00  0.00    +0.056 A 
ENDBRANCH  29  30
ENDBRANCH   1  28
TORSDOF 2
ENDMDL
