MODEL 1
REMARK VINA RESULT:      -9.1      0.000      0.000
REMARK  Name = 
REMARK  12 active torsions:
REMARK  status: ('A' for Active; 'I' for Inactive)
REMARK    1  A    between atoms: O_2  and  C_3
REMARK    2  A    between atoms: N_5  and  C_6
REMARK    3  A    between atoms: C_6  and  C_7
REMARK    4  A    between atoms: C_6  and  C_63
REMARK    5  A    between atoms: C_15  and  C_16
REMARK    6  A    between atoms: C_19  and  C_20
REMARK    7  A    between atoms: C_31  and  C_32
REMARK    8  A    between atoms: C_37  and  C_38
REMARK    9  A    between atoms: C_45  and  C_47
REMARK   10  A    between atoms: C_47  and  N_48
REMARK   11  A    between atoms: C_47  and  C_53
REMARK   12  A    between atoms: C_49  and  O_51
REMARK                            x       y       z     vdW  Elec       q    Type
REMARK                         _______ _______ _______ _____ _____    ______ ____
ROOT
ATOM      1  C   UNL     1       1.426   5.327 -10.133  0.00  0.00    +0.019 A 
ATOM      2  C   UNL     1       1.027   6.204  -9.132  0.00  0.00    +0.003 A 
ATOM      3  C   UNL     1       1.495   6.108  -7.822  0.00  0.00    +0.042 A 
ATOM      4  C   UNL     1       1.718   7.165  -6.784  0.00  0.00    +0.301 C 
ATOM      5  C   UNL     1       3.081   6.899  -6.219  0.00  0.00    +0.042 A 
ATOM      6  C   UNL     1       3.472   5.648  -6.680  0.00  0.00    +0.001 A 
ATOM      7  C   UNL     1       4.685   5.142  -6.226  0.00  0.00    -0.000 A 
ATOM      8  C   UNL     1       5.267   5.723  -5.106  0.00  0.00    -0.000 A 
ATOM      9  C   UNL     1       4.576   6.628  -4.304  0.00  0.00    -0.000 A 
ATOM     10  C   UNL     1       3.544   7.283  -4.964  0.00  0.00    +0.001 A 
ATOM     11  F   UNL     1       0.740   7.130  -5.825  0.00  0.00    -0.195 F 
ATOM     12  F   UNL     1       1.726   8.424  -7.350  0.00  0.00    -0.195 F 
ATOM     13  C   UNL     1       2.372   5.085  -7.479  0.00  0.00    +0.001 A 
ATOM     14  C   UNL     1       2.321   3.986  -8.330  0.00  0.00    -0.000 A 
ATOM     15  C   UNL     1       1.882   4.105  -9.646  0.00  0.00    +0.002 A 
ENDROOT
BRANCH   9  16
ATOM     16  C   UNL     1       4.444   6.395  -2.848  0.00  0.00    +0.002 A 
ATOM     17  C   UNL     1       3.796   7.321  -2.034  0.00  0.00    +0.021 A 
ATOM     18  C   UNL     1       2.735   6.991  -1.224  0.00  0.00    +0.100 A 
ATOM     19  C   UNL     1       2.761   5.691  -0.728  0.00  0.00    +0.100 A 
ATOM     20  N   UNL     1       1.697   5.636   0.072  0.00  0.00    -0.228 NA
ATOM     21  C   UNL     1       1.276   6.903   0.344  0.00  0.00    +0.157 A 
ATOM     22  C   UNL     1       3.637   4.750  -1.253  0.00  0.00    +0.021 A 
ATOM     23  N   UNL     1       1.601   7.579  -0.783  0.00  0.00    -0.228 NA
ATOM     24  C   UNL     1       4.362   5.086  -2.391  0.00  0.00    +0.002 A 
BRANCH  21  25
ATOM     25  C   UNL     1      -0.272   6.787   0.771  0.00  0.00    +0.134 C 
ATOM     26  N   UNL     1      -0.169   7.774   1.961  0.00  0.00    -0.275 N 
ATOM     27  C   UNL     1       0.834   8.782   2.118  0.00  0.00    +0.246 C 
ATOM     28  O   UNL     1       1.202   9.345   1.097  0.00  0.00    -0.273 OA
ATOM     29  C   UNL     1      -1.674   8.248   1.953  0.00  0.00    +0.076 C 
ATOM     30  C   UNL     1      -1.271   9.103   0.636  0.00  0.00    +0.022 C 
ATOM     31  C   UNL     1      -2.365   6.992   1.148  0.00  0.00    +0.020 C 
ATOM     32  C   UNL     1      -2.324   7.382  -0.278  0.00  0.00    +0.004 C 
ATOM     33  C   UNL     1      -0.803   7.946  -0.363  0.00  0.00    +0.027 C 
BRANCH  27  34
ATOM     34  C   UNL     1       1.845   8.575   3.349  0.00  0.00    +0.175 C 
BRANCH  34  35
ATOM     35  C   UNL     1       1.786  10.169   3.750  0.00  0.00    +0.029 C 
ATOM     36  C   UNL     1       2.516  10.922   2.685  0.00  0.00    +0.002 C 
ATOM     37  C   UNL     1       0.321  10.542   3.642  0.00  0.00    +0.002 C 
ENDBRANCH  34  35
BRANCH  34  38
ATOM     38  N   UNL     1       3.174   8.767   2.520  0.00  0.00    -0.161 NA
ATOM     39  C   UNL     1       4.278   8.006   2.935  0.00  0.00    +0.422 C 
ATOM     40  O   UNL     1       4.050   6.901   3.489  0.00  0.00    -0.225 OA
BRANCH  39  41
ATOM     41  O   UNL     1       5.598   8.297   2.635  0.00  0.00    -0.429 OA
ATOM     42  C   UNL     1       6.132   9.580   2.951  0.00  0.00    +0.257 C 
ENDBRANCH  39  41
ENDBRANCH  34  38
ENDBRANCH  27  34
ENDBRANCH  21  25
ENDBRANCH   9  16
BRANCH   1  45
ATOM     43  C   UNL     1       3.351   5.803 -13.130  0.00  0.00    +0.157 A 
ATOM     44  N   UNL     1       2.413   5.086 -12.449  0.00  0.00    -0.227 NA
ATOM     45  C   UNL     1       1.910   5.829 -11.436  0.00  0.00    +0.102 A 
ATOM     46  C   UNL     1       2.451   7.087 -11.693  0.00  0.00    +0.119 A 
ATOM     47  N   UNL     1       3.631   6.784 -12.289  0.00  0.00    -0.226 NA
BRANCH  43  50
ATOM     48  C   UNL     1       4.264   6.901 -15.546  0.00  0.00    +0.246 C 
ATOM     49  N   UNL     1       5.011   6.079 -14.726  0.00  0.00    -0.273 N 
ATOM     50  C   UNL     1       4.438   4.882 -13.885  0.00  0.00    +0.134 C 
ATOM     51  C   UNL     1       5.568   5.004 -12.696  0.00  0.00    +0.029 C 
ATOM     52  C   UNL     1       6.114   6.321 -12.868  0.00  0.00    +0.020 C 
ATOM     53  C   UNL     1       7.256   6.676 -11.991  0.00  0.00    +0.002 C 
ATOM     54  C   UNL     1       6.142   7.586 -12.260  0.00  0.00    +0.002 C 
ATOM     55  C   UNL     1       6.385   6.229 -14.368  0.00  0.00    +0.094 C 
ATOM     56  O   UNL     1       3.062   7.141 -15.438  0.00  0.00    -0.273 OA
BRANCH  48  57
ATOM     57  C   UNL     1       4.973   7.188 -16.969  0.00  0.00    +0.175 C 
BRANCH  57  59
ATOM     58  C   UNL     1       3.207   8.353 -18.404  0.00  0.00    +0.422 C 
ATOM     59  N   UNL     1       3.983   8.369 -17.261  0.00  0.00    -0.161 NA
ATOM     60  O   UNL     1       2.672   7.270 -18.699  0.00  0.00    -0.225 OA
BRANCH  58  62
ATOM     61  C   UNL     1       2.573  10.453 -18.076  0.00  0.00    +0.257 C 
ATOM     62  O   UNL     1       2.459   9.487 -18.750  0.00  0.00    -0.429 OA
ENDBRANCH  58  62
ENDBRANCH  57  59
BRANCH  57  63
ATOM     63  C   UNL     1       6.161   8.119 -16.315  0.00  0.00    +0.029 C 
ATOM     64  C   UNL     1       5.910   9.510 -16.908  0.00  0.00    +0.002 C 
ATOM     65  C   UNL     1       7.443   7.744 -17.060  0.00  0.00    +0.002 C 
ENDBRANCH  57  63
ENDBRANCH  48  57
ENDBRANCH  43  50
ENDBRANCH   1  45
TORSDOF 12
ENDMDL
MODEL 2
REMARK VINA RESULT:      -8.6      2.055     14.664
REMARK  Name = 
REMARK  12 active torsions:
REMARK  status: ('A' for Active; 'I' for Inactive)
REMARK    1  A    between atoms: O_2  and  C_3
REMARK    2  A    between atoms: N_5  and  C_6
REMARK    3  A    between atoms: C_6  and  C_7
REMARK    4  A    between atoms: C_6  and  C_63
REMARK    5  A    between atoms: C_15  and  C_16
REMARK    6  A    between atoms: C_19  and  C_20
REMARK    7  A    between atoms: C_31  and  C_32
REMARK    8  A    between atoms: C_37  and  C_38
REMARK    9  A    between atoms: C_45  and  C_47
REMARK   10  A    between atoms: C_47  and  N_48
REMARK   11  A    between atoms: C_47  and  C_53
REMARK   12  A    between atoms: C_49  and  O_51
REMARK                            x       y       z     vdW  Elec       q    Type
REMARK                         _______ _______ _______ _____ _____    ______ ____
ROOT
ATOM      1  C   UNL     1       4.044   5.850  -1.368  0.00  0.00    +0.019 A 
ATOM      2  C   UNL     1       4.727   6.339  -2.475  0.00  0.00    +0.003 A 
ATOM      3  C   UNL     1       4.258   6.177  -3.778  0.00  0.00    +0.042 A 
ATOM      4  C   UNL     1       4.422   7.040  -4.991  0.00  0.00    +0.301 C 
ATOM      5  C   UNL     1       3.054   7.164  -5.590  0.00  0.00    +0.042 A 
ATOM      6  C   UNL     1       2.248   6.229  -4.953  0.00  0.00    +0.001 A 
ATOM      7  C   UNL     1       0.936   6.100  -5.392  0.00  0.00    -0.000 A 
ATOM      8  C   UNL     1       0.597   6.633  -6.630  0.00  0.00    -0.000 A 
ATOM      9  C   UNL     1       1.563   7.084  -7.526  0.00  0.00    -0.000 A 
ATOM     10  C   UNL     1       2.758   7.450  -6.920  0.00  0.00    +0.001 A 
ATOM     11  F   UNL     1       5.328   6.497  -5.864  0.00  0.00    -0.195 F 
ATOM     12  F   UNL     1       4.856   8.304  -4.646  0.00  0.00    -0.195 F 
ATOM     13  C   UNL     1       3.079   5.475  -4.000  0.00  0.00    +0.001 A 
ATOM     14  C   UNL     1       2.739   4.598  -2.975  0.00  0.00    -0.000 A 
ATOM     15  C   UNL     1       3.189   4.794  -1.672  0.00  0.00    +0.002 A 
ENDROOT
BRANCH   9  16
ATOM     16  C   UNL     1       1.608   6.561  -8.910  0.00  0.00    +0.002 A 
ATOM     17  C   UNL     1       2.432   7.149  -9.868  0.00  0.00    +0.021 A 
ATOM     18  C   UNL     1       3.373   6.442 -10.579  0.00  0.00    +0.100 A 
ATOM     19  C   UNL     1       3.042   5.114 -10.826  0.00  0.00    +0.100 A 
ATOM     20  N   UNL     1       4.049   4.671 -11.578  0.00  0.00    -0.228 NA
ATOM     21  C   UNL     1       4.740   5.737 -12.072  0.00  0.00    +0.157 A 
ATOM     22  C   UNL     1       1.987   4.509 -10.155  0.00  0.00    +0.021 A 
ATOM     23  N   UNL     1       4.601   6.665 -11.096  0.00  0.00    -0.228 NA
ATOM     24  C   UNL     1       1.381   5.206  -9.115  0.00  0.00    +0.002 A 
BRANCH  21  25
ATOM     25  C   UNL     1       6.212   5.195 -12.435  0.00  0.00    +0.134 C 
ATOM     26  N   UNL     1       6.201   5.715 -13.895  0.00  0.00    -0.275 N 
ATOM     27  C   UNL     1       5.379   6.777 -14.392  0.00  0.00    +0.246 C 
ATOM     28  O   UNL     1       5.185   7.714 -13.631  0.00  0.00    -0.273 OA
ATOM     29  C   UNL     1       7.763   5.874 -14.058  0.00  0.00    +0.076 C 
ATOM     30  C   UNL     1       7.605   7.188 -13.122  0.00  0.00    +0.022 C 
ATOM     31  C   UNL     1       8.278   4.865 -12.867  0.00  0.00    +0.020 C 
ATOM     32  C   UNL     1       8.403   5.721 -11.667  0.00  0.00    +0.004 C 
ATOM     33  C   UNL     1       7.011   6.552 -11.779  0.00  0.00    +0.027 C 
BRANCH  27  34
ATOM     34  C   UNL     1       4.267   6.352 -15.470  0.00  0.00    +0.175 C 
BRANCH  34  35
ATOM     35  C   UNL     1       4.742   7.526 -16.518  0.00  0.00    +0.029 C 
ATOM     36  C   UNL     1       5.475   6.854 -17.634  0.00  0.00    +0.002 C 
ATOM     37  C   UNL     1       3.453   8.079 -17.094  0.00  0.00    +0.002 C 
ENDBRANCH  34  35
BRANCH  34  38
ATOM     38  N   UNL     1       3.107   7.251 -14.889  0.00  0.00    -0.161 NA
ATOM     39  C   UNL     1       1.889   6.602 -14.634  0.00  0.00    +0.422 C 
ATOM     40  O   UNL     1       1.929   5.380 -14.341  0.00  0.00    -0.225 OA
BRANCH  39  41
ATOM     41  O   UNL     1       0.664   7.235 -14.517  0.00  0.00    -0.429 OA
ATOM     42  C   UNL     1      -0.204   7.317 -15.644  0.00  0.00    +0.257 C 
ENDBRANCH  39  41
ENDBRANCH  34  38
ENDBRANCH  27  34
ENDBRANCH  21  25
ENDBRANCH   9  16
BRANCH   1  45
ATOM     43  C   UNL     1       3.064   8.626   0.693  0.00  0.00    +0.157 A 
ATOM     44  N   UNL     1       2.704   7.540  -0.048  0.00  0.00    -0.227 NA
ATOM     45  C   UNL     1       3.765   6.714  -0.203  0.00  0.00    +0.102 A 
ATOM     46  C   UNL     1       4.704   7.271   0.664  0.00  0.00    +0.119 A 
ATOM     47  N   UNL     1       4.385   8.589   0.635  0.00  0.00    -0.226 NA
BRANCH  43  50
ATOM     48  C   UNL     1       0.520   8.488   1.869  0.00  0.00    +0.246 C 
ATOM     49  N   UNL     1       1.218   9.658   1.642  0.00  0.00    -0.273 N 
ATOM     50  C   UNL     1       2.154   9.926   0.409  0.00  0.00    +0.134 C 
ATOM     51  C   UNL     1       3.143  10.962   1.219  0.00  0.00    +0.029 C 
ATOM     52  C   UNL     1       2.869  10.696   2.603  0.00  0.00    +0.020 C 
ATOM     53  C   UNL     1       3.545  11.578   3.585  0.00  0.00    +0.002 C 
ATOM     54  C   UNL     1       3.449  10.126   3.747  0.00  0.00    +0.002 C 
ATOM     55  C   UNL     1       1.346  10.775   2.522  0.00  0.00    +0.094 C 
ATOM     56  O   UNL     1       0.818   7.369   1.453  0.00  0.00    -0.273 OA
BRANCH  48  57
ATOM     57  C   UNL     1      -1.003   8.742   2.346  0.00  0.00    +0.175 C 
BRANCH  57  59
ATOM     58  C   UNL     1      -2.090   7.741   0.260  0.00  0.00    +0.422 C 
ATOM     59  N   UNL     1      -1.507   7.526   1.494  0.00  0.00    -0.161 NA
ATOM     60  O   UNL     1      -1.537   8.575  -0.479  0.00  0.00    -0.225 OA
BRANCH  58  62
ATOM     61  C   UNL     1      -2.737   6.716  -1.598  0.00  0.00    +0.257 C 
ATOM     62  O   UNL     1      -2.697   6.674  -0.415  0.00  0.00    -0.429 OA
ENDBRANCH  58  62
ENDBRANCH  57  59
BRANCH  57  63
ATOM     63  C   UNL     1      -0.820   7.904   3.750  0.00  0.00    +0.029 C 
ATOM     64  C   UNL     1       0.626   7.396   3.692  0.00  0.00    +0.002 C 
ATOM     65  C   UNL     1      -1.568   6.586   3.550  0.00  0.00    +0.002 C 
ENDBRANCH  57  63
ENDBRANCH  48  57
ENDBRANCH  43  50
ENDBRANCH   1  45
TORSDOF 12
ENDMDL
MODEL 3
REMARK VINA RESULT:      -8.3      1.749      3.160
REMARK  Name = 
REMARK  12 active torsions:
REMARK  status: ('A' for Active; 'I' for Inactive)
REMARK    1  A    between atoms: O_2  and  C_3
REMARK    2  A    between atoms: N_5  and  C_6
REMARK    3  A    between atoms: C_6  and  C_7
REMARK    4  A    between atoms: C_6  and  C_63
REMARK    5  A    between atoms: C_15  and  C_16
REMARK    6  A    between atoms: C_19  and  C_20
REMARK    7  A    between atoms: C_31  and  C_32
REMARK    8  A    between atoms: C_37  and  C_38
REMARK    9  A    between atoms: C_45  and  C_47
REMARK   10  A    between atoms: C_47  and  N_48
REMARK   11  A    between atoms: C_47  and  C_53
REMARK   12  A    between atoms: C_49  and  O_51
REMARK                            x       y       z     vdW  Elec       q    Type
REMARK                         _______ _______ _______ _____ _____    ______ ____
ROOT
ATOM      1  C   UNL     1       0.506   5.174 -11.077  0.00  0.00    +0.019 A 
ATOM      2  C   UNL     1       0.358   6.172 -10.121  0.00  0.00    +0.003 A 
ATOM      3  C   UNL     1       0.940   6.090  -8.857  0.00  0.00    +0.042 A 
ATOM      4  C   UNL     1       1.435   7.163  -7.937  0.00  0.00    +0.301 C 
ATOM      5  C   UNL     1       2.790   6.715  -7.480  0.00  0.00    +0.042 A 
ATOM      6  C   UNL     1       2.928   5.387  -7.867  0.00  0.00    +0.001 A 
ATOM      7  C   UNL     1       4.086   4.720  -7.486  0.00  0.00    -0.000 A 
ATOM      8  C   UNL     1       4.866   5.271  -6.477  0.00  0.00    -0.000 A 
ATOM      9  C   UNL     1       4.416   6.330  -5.695  0.00  0.00    -0.000 A 
ATOM     10  C   UNL     1       3.437   7.101  -6.310  0.00  0.00    +0.001 A 
ATOM     11  F   UNL     1       0.570   7.356  -6.892  0.00  0.00    -0.195 F 
ATOM     12  F   UNL     1       1.582   8.362  -8.606  0.00  0.00    -0.195 F 
ATOM     13  C   UNL     1       1.675   4.961  -8.511  0.00  0.00    +0.001 A 
ATOM     14  C   UNL     1       1.361   3.830  -9.257  0.00  0.00    -0.000 A 
ATOM     15  C   UNL     1       0.812   3.930 -10.533  0.00  0.00    +0.002 A 
ENDROOT
BRANCH   9  16
ATOM     16  C   UNL     1       4.402   6.223  -4.218  0.00  0.00    +0.002 A 
ATOM     17  C   UNL     1       3.649   7.106  -3.446  0.00  0.00    +0.021 A 
ATOM     18  C   UNL     1       2.704   6.687  -2.540  0.00  0.00    +0.100 A 
ATOM     19  C   UNL     1       2.976   5.465  -1.935  0.00  0.00    +0.100 A 
ATOM     20  N   UNL     1       1.980   5.314  -1.062  0.00  0.00    -0.228 NA
ATOM     21  C   UNL     1       1.366   6.516  -0.874  0.00  0.00    +0.157 A 
ATOM     22  C   UNL     1       3.970   4.633  -2.433  0.00  0.00    +0.021 A 
ATOM     23  N   UNL     1       1.512   7.122  -2.076  0.00  0.00    -0.228 NA
ATOM     24  C   UNL     1       4.567   4.969  -3.643  0.00  0.00    +0.002 A 
BRANCH  21  25
ATOM     25  C   UNL     1      -0.116   6.190  -0.335  0.00  0.00    +0.134 C 
ATOM     26  N   UNL     1       0.054   6.934   1.014  0.00  0.00    -0.275 N 
ATOM     27  C   UNL     1       1.002   7.974   1.274  0.00  0.00    +0.246 C 
ATOM     28  O   UNL     1       1.219   8.753   0.356  0.00  0.00    -0.273 OA
ATOM     29  C   UNL     1      -1.470   7.273   1.245  0.00  0.00    +0.076 C 
ATOM     30  C   UNL     1      -1.269   8.397   0.093  0.00  0.00    +0.022 C 
ATOM     31  C   UNL     1      -2.163   6.141   0.273  0.00  0.00    +0.020 C 
ATOM     32  C   UNL     1      -2.305   6.801  -1.042  0.00  0.00    +0.004 C 
ATOM     33  C   UNL     1      -0.841   7.496  -1.158  0.00  0.00    +0.027 C 
BRANCH  27  34
ATOM     34  C   UNL     1       2.154   7.620   2.337  0.00  0.00    +0.175 C 
BRANCH  34  35
ATOM     35  C   UNL     1       1.873   8.994   3.196  0.00  0.00    +0.029 C 
ATOM     36  C   UNL     1       1.833  10.126   2.221  0.00  0.00    +0.002 C 
ATOM     37  C   UNL     1       0.472   8.827   3.750  0.00  0.00    +0.002 C 
ENDBRANCH  34  35
BRANCH  34  38
ATOM     38  N   UNL     1       3.341   8.285   1.539  0.00  0.00    -0.161 NA
ATOM     39  C   UNL     1       4.636   7.966   1.975  0.00  0.00    +0.422 C 
ATOM     40  O   UNL     1       4.809   6.846   2.521  0.00  0.00    -0.225 OA
BRANCH  39  41
ATOM     41  O   UNL     1       5.769   8.714   1.706  0.00  0.00    -0.429 OA
ATOM     42  C   UNL     1       6.888   8.649   2.586  0.00  0.00    +0.257 C 
ENDBRANCH  39  41
ENDBRANCH  34  38
ENDBRANCH  27  34
ENDBRANCH  21  25
ENDBRANCH   9  16
BRANCH   1  45
ATOM     43  C   UNL     1       1.393   6.959 -14.068  0.00  0.00    +0.157 A 
ATOM     44  N   UNL     1       1.750   6.502 -12.834  0.00  0.00    -0.227 NA
ATOM     45  C   UNL     1       0.924   5.498 -12.457  0.00  0.00    +0.102 A 
ATOM     46  C   UNL     1       0.202   5.254 -13.624  0.00  0.00    +0.119 A 
ATOM     47  N   UNL     1       0.171   6.475 -14.212  0.00  0.00    -0.226 NA
BRANCH  43  50
ATOM     48  C   UNL     1       3.782   7.202 -15.521  0.00  0.00    +0.246 C 
ATOM     49  N   UNL     1       2.745   8.113 -15.557  0.00  0.00    -0.273 N 
ATOM     50  C   UNL     1       1.830   8.488 -14.336  0.00  0.00    +0.134 C 
ATOM     51  C   UNL     1       0.516   8.843 -15.260  0.00  0.00    +0.029 C 
ATOM     52  C   UNL     1       0.800   8.220 -16.523  0.00  0.00    +0.020 C 
ATOM     53  C   UNL     1      -0.175   8.473 -17.611  0.00  0.00    +0.002 C 
ATOM     54  C   UNL     1       0.391   7.152 -17.337  0.00  0.00    +0.002 C 
ATOM     55  C   UNL     1       2.211   8.775 -16.704  0.00  0.00    +0.094 C 
ATOM     56  O   UNL     1       3.893   6.255 -14.744  0.00  0.00    -0.273 OA
BRANCH  48  57
ATOM     57  C   UNL     1       5.109   7.724 -16.280  0.00  0.00    +0.175 C 
BRANCH  57  59
ATOM     58  C   UNL     1       6.815   7.159 -14.462  0.00  0.00    +0.422 C 
ATOM     59  N   UNL     1       6.002   6.710 -15.484  0.00  0.00    -0.161 NA
ATOM     60  O   UNL     1       6.318   7.989 -13.680  0.00  0.00    -0.225 OA
BRANCH  58  62
ATOM     61  C   UNL     1       7.344   5.236 -13.491  0.00  0.00    +0.257 C 
ATOM     62  O   UNL     1       7.738   6.284 -13.875  0.00  0.00    -0.429 OA
ENDBRANCH  58  62
ENDBRANCH  57  59
BRANCH  57  63
ATOM     63  C   UNL     1       4.875   6.757 -17.590  0.00  0.00    +0.029 C 
ATOM     64  C   UNL     1       6.294   6.375 -18.026  0.00  0.00    +0.002 C 
ATOM     65  C   UNL     1       4.491   7.692 -18.737  0.00  0.00    +0.002 C 
ENDBRANCH  57  63
ENDBRANCH  48  57
ENDBRANCH  43  50
ENDBRANCH   1  45
TORSDOF 12
ENDMDL
MODEL 4
REMARK VINA RESULT:      -8.2      2.672     15.465
REMARK  Name = 
REMARK  12 active torsions:
REMARK  status: ('A' for Active; 'I' for Inactive)
REMARK    1  A    between atoms: O_2  and  C_3
REMARK    2  A    between atoms: N_5  and  C_6
REMARK    3  A    between atoms: C_6  and  C_7
REMARK    4  A    between atoms: C_6  and  C_63
REMARK    5  A    between atoms: C_15  and  C_16
REMARK    6  A    between atoms: C_19  and  C_20
REMARK    7  A    between atoms: C_31  and  C_32
REMARK    8  A    between atoms: C_37  and  C_38
REMARK    9  A    between atoms: C_45  and  C_47
REMARK   10  A    between atoms: C_47  and  N_48
REMARK   11  A    between atoms: C_47  and  C_53
REMARK   12  A    between atoms: C_49  and  O_51
REMARK                            x       y       z     vdW  Elec       q    Type
REMARK                         _______ _______ _______ _____ _____    ______ ____
ROOT
ATOM      1  C   UNL     1       3.747   4.734  -5.463  0.00  0.00    +0.019 A 
ATOM      2  C   UNL     1       4.317   5.246  -6.622  0.00  0.00    +0.003 A 
ATOM      3  C   UNL     1       3.652   5.248  -7.847  0.00  0.00    +0.042 A 
ATOM      4  C   UNL     1       3.739   6.192  -9.007  0.00  0.00    +0.301 C 
ATOM      5  C   UNL     1       2.323   6.509  -9.382  0.00  0.00    +0.042 A 
ATOM      6  C   UNL     1       1.514   5.609  -8.698  0.00  0.00    +0.001 A 
ATOM      7  C   UNL     1       0.146   5.655  -8.943  0.00  0.00    -0.000 A 
ATOM      8  C   UNL     1      -0.301   6.327 -10.073  0.00  0.00    -0.000 A 
ATOM      9  C   UNL     1       0.572   6.753 -11.070  0.00  0.00    -0.000 A 
ATOM     10  C   UNL     1       1.875   6.940 -10.627  0.00  0.00    +0.001 A 
ATOM     11  F   UNL     1       4.443   5.638 -10.043  0.00  0.00    -0.195 F 
ATOM     12  F   UNL     1       4.360   7.370  -8.642  0.00  0.00    -0.195 F 
ATOM     13  C   UNL     1       2.380   4.693  -7.939  0.00  0.00    +0.001 A 
ATOM     14  C   UNL     1       2.091   3.769  -6.940  0.00  0.00    -0.000 A 
ATOM     15  C   UNL     1       2.742   3.803  -5.708  0.00  0.00    +0.002 A 
ENDROOT
BRANCH   9  16
ATOM     16  C   UNL     1       0.359   6.352 -12.479  0.00  0.00    +0.002 A 
ATOM     17  C   UNL     1       0.067   7.303 -13.455  0.00  0.00    +0.021 A 
ATOM     18  C   UNL     1       0.812   7.452 -14.601  0.00  0.00    +0.100 A 
ATOM     19  C   UNL     1       1.388   6.280 -15.079  0.00  0.00    +0.100 A 
ATOM     20  N   UNL     1       1.981   6.657 -16.211  0.00  0.00    -0.228 NA
ATOM     21  C   UNL     1       1.486   7.868 -16.593  0.00  0.00    +0.157 A 
ATOM     22  C   UNL     1       1.429   5.137 -14.291  0.00  0.00    +0.021 A 
ATOM     23  N   UNL     1       1.196   8.462 -15.411  0.00  0.00    -0.228 NA
ATOM     24  C   UNL     1       1.036   5.238 -12.961  0.00  0.00    +0.002 A 
BRANCH  21  25
ATOM     25  C   UNL     1       2.595   8.531 -17.554  0.00  0.00    +0.134 C 
ATOM     26  N   UNL     1       1.594   9.417 -18.339  0.00  0.00    -0.275 N 
ATOM     27  C   UNL     1       0.306   9.830 -17.871  0.00  0.00    +0.246 C 
ATOM     28  O   UNL     1       0.220  10.088 -16.679  0.00  0.00    -0.273 OA
ATOM     29  C   UNL     1       2.613  10.552 -18.745  0.00  0.00    +0.076 C 
ATOM     30  C   UNL     1       2.506  11.032 -17.199  0.00  0.00    +0.022 C 
ATOM     31  C   UNL     1       4.030   9.734 -18.581  0.00  0.00    +0.020 C 
ATOM     32  C   UNL     1       4.452   9.973 -17.184  0.00  0.00    +0.004 C 
ATOM     33  C   UNL     1       3.035   9.734 -16.427  0.00  0.00    +0.027 C 
BRANCH  27  34
ATOM     34  C   UNL     1      -0.952   9.237 -18.674  0.00  0.00    +0.175 C 
BRANCH  34  35
ATOM     35  C   UNL     1      -1.955  10.402 -18.090  0.00  0.00    +0.029 C 
ATOM     36  C   UNL     1      -1.466  11.713 -18.614  0.00  0.00    +0.002 C 
ATOM     37  C   UNL     1      -3.294  10.126 -18.746  0.00  0.00    +0.002 C 
ENDBRANCH  34  35
BRANCH  34  38
ATOM     38  N   UNL     1      -1.399   8.207 -17.566  0.00  0.00    -0.161 NA
ATOM     39  C   UNL     1      -1.311   6.850 -17.911  0.00  0.00    +0.422 C 
ATOM     40  O   UNL     1      -0.433   6.515 -18.748  0.00  0.00    -0.225 OA
BRANCH  39  41
ATOM     41  O   UNL     1      -2.000   5.826 -17.284  0.00  0.00    -0.429 OA
ATOM     42  C   UNL     1      -3.022   5.124 -17.985  0.00  0.00    +0.257 C 
ENDBRANCH  39  41
ENDBRANCH  34  38
ENDBRANCH  27  34
ENDBRANCH  21  25
ENDBRANCH   9  16
BRANCH   1  45
ATOM     43  C   UNL     1       3.122   5.814  -2.093  0.00  0.00    +0.157 A 
ATOM     44  N   UNL     1       3.828   5.025  -2.952  0.00  0.00    -0.227 NA
ATOM     45  C   UNL     1       3.737   5.517  -4.210  0.00  0.00    +0.102 A 
ATOM     46  C   UNL     1       3.117   6.748  -4.003  0.00  0.00    +0.119 A 
ATOM     47  N   UNL     1       2.352   6.513  -2.909  0.00  0.00    -0.226 NA
BRANCH  43  50
ATOM     48  C   UNL     1       2.644   7.506   0.094  0.00  0.00    +0.246 C 
ATOM     49  N   UNL     1       1.977   6.320  -0.141  0.00  0.00    -0.273 N 
ATOM     50  C   UNL     1       2.620   5.034  -0.774  0.00  0.00    +0.134 C 
ATOM     51  C   UNL     1       1.217   4.508  -1.454  0.00  0.00    +0.029 C 
ATOM     52  C   UNL     1       0.375   5.671  -1.460  0.00  0.00    +0.020 C 
ATOM     53  C   UNL     1      -1.020   5.466  -1.920  0.00  0.00    +0.002 C 
ATOM     54  C   UNL     1      -0.200   6.606  -2.334  0.00  0.00    +0.002 C 
ATOM     55  C   UNL     1       0.579   6.069   0.000  0.00  0.00    +0.094 C 
ATOM     56  O   UNL     1       3.638   7.915  -0.505  0.00  0.00    -0.273 OA
BRANCH  48  57
ATOM     57  C   UNL     1       2.313   8.142   1.542  0.00  0.00    +0.175 C 
BRANCH  57  59
ATOM     58  C   UNL     1       4.587   8.141   2.711  0.00  0.00    +0.422 C 
ATOM     59  N   UNL     1       3.792   8.640   1.697  0.00  0.00    -0.161 NA
ATOM     60  O   UNL     1       4.531   6.914   2.909  0.00  0.00    -0.225 OA
BRANCH  58  62
ATOM     61  C   UNL     1       6.733   7.996   3.254  0.00  0.00    +0.257 C 
ATOM     62  O   UNL     1       5.842   8.715   2.954  0.00  0.00    -0.429 OA
ENDBRANCH  58  62
ENDBRANCH  57  59
BRANCH  57  63
ATOM     63  C   UNL     1       1.724   9.544   0.916  0.00  0.00    +0.029 C 
ATOM     64  C   UNL     1       1.763  10.522   2.096  0.00  0.00    +0.002 C 
ATOM     65  C   UNL     1       0.214   9.344   0.791  0.00  0.00    +0.002 C 
ENDBRANCH  57  63
ENDBRANCH  48  57
ENDBRANCH  43  50
ENDBRANCH   1  45
TORSDOF 12
ENDMDL
MODEL 5
REMARK VINA RESULT:      -8.0      2.004     14.900
REMARK  Name = 
REMARK  12 active torsions:
REMARK  status: ('A' for Active; 'I' for Inactive)
REMARK    1  A    between atoms: O_2  and  C_3
REMARK    2  A    between atoms: N_5  and  C_6
REMARK    3  A    between atoms: C_6  and  C_7
REMARK    4  A    between atoms: C_6  and  C_63
REMARK    5  A    between atoms: C_15  and  C_16
REMARK    6  A    between atoms: C_19  and  C_20
REMARK    7  A    between atoms: C_31  and  C_32
REMARK    8  A    between atoms: C_37  and  C_38
REMARK    9  A    between atoms: C_45  and  C_47
REMARK   10  A    between atoms: C_47  and  N_48
REMARK   11  A    between atoms: C_47  and  C_53
REMARK   12  A    between atoms: C_49  and  O_51
REMARK                            x       y       z     vdW  Elec       q    Type
REMARK                         _______ _______ _______ _____ _____    ______ ____
ROOT
ATOM      1  C   UNL     1       3.883   4.835  -4.256  0.00  0.00    +0.019 A 
ATOM      2  C   UNL     1       4.216   5.758  -5.241  0.00  0.00    +0.003 A 
ATOM      3  C   UNL     1       3.675   5.712  -6.525  0.00  0.00    +0.042 A 
ATOM      4  C   UNL     1       3.385   6.808  -7.503  0.00  0.00    +0.301 C 
ATOM      5  C   UNL     1       1.994   6.551  -8.001  0.00  0.00    +0.042 A 
ATOM      6  C   UNL     1       1.641   5.277  -7.572  0.00  0.00    +0.001 A 
ATOM      7  C   UNL     1       0.409   4.777  -7.978  0.00  0.00    -0.000 A 
ATOM      8  C   UNL     1      -0.240   5.398  -9.038  0.00  0.00    -0.000 A 
ATOM      9  C   UNL     1       0.396   6.342  -9.839  0.00  0.00    -0.000 A 
ATOM     10  C   UNL     1       1.458   6.981  -9.211  0.00  0.00    +0.001 A 
ATOM     11  F   UNL     1       4.307   6.823  -8.516  0.00  0.00    -0.195 F 
ATOM     12  F   UNL     1       3.398   8.042  -6.885  0.00  0.00    -0.195 F 
ATOM     13  C   UNL     1       2.790   4.694  -6.861  0.00  0.00    +0.001 A 
ATOM     14  C   UNL     1       2.899   3.561  -6.061  0.00  0.00    -0.000 A 
ATOM     15  C   UNL     1       3.410   3.630  -4.768  0.00  0.00    +0.002 A 
ENDROOT
BRANCH   9  16
ATOM     16  C   UNL     1       0.447   6.172 -11.308  0.00  0.00    +0.002 A 
ATOM     17  C   UNL     1       1.242   7.003 -12.095  0.00  0.00    +0.021 A 
ATOM     18  C   UNL     1       2.201   6.523 -12.956  0.00  0.00    +0.100 A 
ATOM     19  C   UNL     1       1.914   5.283 -13.517  0.00  0.00    +0.100 A 
ATOM     20  N   UNL     1       2.929   5.071 -14.354  0.00  0.00    -0.228 NA
ATOM     21  C   UNL     1       3.579   6.249 -14.575  0.00  0.00    +0.157 A 
ATOM     22  C   UNL     1       0.886   4.497 -13.012  0.00  0.00    +0.021 A 
ATOM     23  N   UNL     1       3.416   6.909 -13.404  0.00  0.00    -0.228 NA
ATOM     24  C   UNL     1       0.266   4.899 -11.835  0.00  0.00    +0.002 A 
BRANCH  21  25
ATOM     25  C   UNL     1       5.066   5.864 -15.058  0.00  0.00    +0.134 C 
ATOM     26  N   UNL     1       4.996   6.660 -16.386  0.00  0.00    -0.275 N 
ATOM     27  C   UNL     1       4.115   7.755 -16.652  0.00  0.00    +0.246 C 
ATOM     28  O   UNL     1       3.894   8.513 -15.719  0.00  0.00    -0.273 OA
ATOM     29  C   UNL     1       6.545   6.927 -16.537  0.00  0.00    +0.076 C 
ATOM     30  C   UNL     1       6.347   8.021 -15.357  0.00  0.00    +0.022 C 
ATOM     31  C   UNL     1       7.135   5.730 -15.575  0.00  0.00    +0.020 C 
ATOM     32  C   UNL     1       7.247   6.338 -14.232  0.00  0.00    +0.004 C 
ATOM     33  C   UNL     1       5.816   7.104 -14.159  0.00  0.00    +0.027 C 
BRANCH  27  34
ATOM     34  C   UNL     1       2.998   7.495 -17.778  0.00  0.00    +0.175 C 
BRANCH  34  35
ATOM     35  C   UNL     1       3.398   8.871 -18.584  0.00  0.00    +0.029 C 
ATOM     36  C   UNL     1       3.101  10.020 -17.676  0.00  0.00    +0.002 C 
ATOM     37  C   UNL     1       4.904   8.802 -18.746  0.00  0.00    +0.002 C 
ENDBRANCH  34  35
BRANCH  34  38
ATOM     38  N   UNL     1       1.814   8.209 -17.018  0.00  0.00    -0.161 NA
ATOM     39  C   UNL     1       0.532   8.026 -17.559  0.00  0.00    +0.422 C 
ATOM     40  O   UNL     1       0.309   6.958 -18.186  0.00  0.00    -0.225 OA
BRANCH  39  41
ATOM     41  O   UNL     1      -0.555   8.848 -17.318  0.00  0.00    -0.429 OA
ATOM     42  C   UNL     1      -0.994   9.759 -18.323  0.00  0.00    +0.257 C 
ENDBRANCH  39  41
ENDBRANCH  34  38
ENDBRANCH  27  34
ENDBRANCH  21  25
ENDBRANCH   9  16
BRANCH   1  45
ATOM     43  C   UNL     1       3.037   6.870  -1.417  0.00  0.00    +0.157 A 
ATOM     44  N   UNL     1       2.673   6.331  -2.614  0.00  0.00    -0.227 NA
ATOM     45  C   UNL     1       3.469   5.277  -2.908  0.00  0.00    +0.102 A 
ATOM     46  C   UNL     1       4.179   5.101  -1.721  0.00  0.00    +0.119 A 
ATOM     47  N   UNL     1       4.244   6.363  -1.228  0.00  0.00    -0.226 NA
BRANCH  43  50
ATOM     48  C   UNL     1       0.746   7.306   0.143  0.00  0.00    +0.246 C 
ATOM     49  N   UNL     1       1.800   8.191   0.032  0.00  0.00    -0.273 N 
ATOM     50  C   UNL     1       2.646   8.428  -1.270  0.00  0.00    +0.134 C 
ATOM     51  C   UNL     1       4.020   8.836  -0.462  0.00  0.00    +0.029 C 
ATOM     52  C   UNL     1       3.802   8.341   0.868  0.00  0.00    +0.020 C 
ATOM     53  C   UNL     1       4.845   8.671   1.869  0.00  0.00    +0.002 C 
ATOM     54  C   UNL     1       4.239   7.344   1.754  0.00  0.00    +0.002 C 
ATOM     55  C   UNL     1       2.414   8.944   1.078  0.00  0.00    +0.094 C 
ATOM     56  O   UNL     1       0.571   6.293  -0.532  0.00  0.00    -0.273 OA
BRANCH  48  57
ATOM     57  C   UNL     1      -0.523   7.929   0.926  0.00  0.00    +0.175 C 
BRANCH  57  59
ATOM     58  C   UNL     1      -2.308   7.467  -0.845  0.00  0.00    +0.422 C 
ATOM     59  N   UNL     1      -1.504   6.971   0.163  0.00  0.00    -0.161 NA
ATOM     60  O   UNL     1      -1.773   8.252  -1.648  0.00  0.00    -0.225 OA
BRANCH  58  62
ATOM     61  C   UNL     1      -3.285   6.470  -2.570  0.00  0.00    +0.257 C 
ATOM     62  O   UNL     1      -3.304   6.653  -1.400  0.00  0.00    -0.429 OA
ENDBRANCH  58  62
ENDBRANCH  57  59
BRANCH  57  63
ATOM     63  C   UNL     1      -0.327   6.960   2.241  0.00  0.00    +0.029 C 
ATOM     64  C   UNL     1      -1.759   6.590   2.645  0.00  0.00    +0.002 C 
ATOM     65  C   UNL     1       0.037   7.894   3.397  0.00  0.00    +0.002 C 
ENDBRANCH  57  63
ENDBRANCH  48  57
ENDBRANCH  43  50
ENDBRANCH   1  45
TORSDOF 12
ENDMDL
MODEL 6
REMARK VINA RESULT:      -8.0      4.743     14.195
REMARK  Name = 
REMARK  12 active torsions:
REMARK  status: ('A' for Active; 'I' for Inactive)
REMARK    1  A    between atoms: O_2  and  C_3
REMARK    2  A    between atoms: N_5  and  C_6
REMARK    3  A    between atoms: C_6  and  C_7
REMARK    4  A    between atoms: C_6  and  C_63
REMARK    5  A    between atoms: C_15  and  C_16
REMARK    6  A    between atoms: C_19  and  C_20
REMARK    7  A    between atoms: C_31  and  C_32
REMARK    8  A    between atoms: C_37  and  C_38
REMARK    9  A    between atoms: C_45  and  C_47
REMARK   10  A    between atoms: C_47  and  N_48
REMARK   11  A    between atoms: C_47  and  C_53
REMARK   12  A    between atoms: C_49  and  O_51
REMARK                            x       y       z     vdW  Elec       q    Type
REMARK                         _______ _______ _______ _____ _____    ______ ____
ROOT
ATOM      1  C   UNL     1       3.802  10.813   3.111  0.00  0.00    +0.019 A 
ATOM      2  C   UNL     1       4.003   9.447   2.954  0.00  0.00    +0.003 A 
ATOM      3  C   UNL     1       3.715   8.779   1.765  0.00  0.00    +0.042 A 
ATOM      4  C   UNL     1       4.344   7.568   1.147  0.00  0.00    +0.301 C 
ATOM      5  C   UNL     1       4.584   7.923  -0.289  0.00  0.00    +0.042 A 
ATOM      6  C   UNL     1       3.895   9.104  -0.534  0.00  0.00    +0.001 A 
ATOM      7  C   UNL     1       3.904   9.601  -1.832  0.00  0.00    -0.000 A 
ATOM      8  C   UNL     1       4.286   8.751  -2.863  0.00  0.00    -0.000 A 
ATOM      9  C   UNL     1       4.437   7.381  -2.669  0.00  0.00    -0.000 A 
ATOM     10  C   UNL     1       4.704   7.031  -1.351  0.00  0.00    +0.001 A 
ATOM     11  F   UNL     1       3.539   6.468   1.286  0.00  0.00    -0.195 F 
ATOM     12  F   UNL     1       5.564   7.290   1.730  0.00  0.00    -0.195 F 
ATOM     13  C   UNL     1       3.178   9.484   0.694  0.00  0.00    +0.001 A 
ATOM     14  C   UNL     1       2.534  10.663   1.057  0.00  0.00    -0.000 A 
ATOM     15  C   UNL     1       2.857  11.336   2.232  0.00  0.00    +0.002 A 
ENDROOT
BRANCH   9  16
ATOM     16  C   UNL     1       3.706   6.414  -3.519  0.00  0.00    +0.002 A 
ATOM     17  C   UNL     1       3.163   6.807  -4.740  0.00  0.00    +0.021 A 
ATOM     18  C   UNL     1       3.462   6.181  -5.927  0.00  0.00    +0.100 A 
ATOM     19  C   UNL     1       3.736   4.821  -5.818  0.00  0.00    +0.100 A 
ATOM     20  N   UNL     1       3.915   4.431  -7.079  0.00  0.00    -0.228 NA
ATOM     21  C   UNL     1       3.415   5.383  -7.916  0.00  0.00    +0.157 A 
ATOM     22  C   UNL     1       3.962   4.241  -4.576  0.00  0.00    +0.021 A 
ATOM     23  N   UNL     1       3.613   6.529  -7.224  0.00  0.00    -0.228 NA
ATOM     24  C   UNL     1       4.076   5.076  -3.470  0.00  0.00    +0.002 A 
BRANCH  21  25
ATOM     25  C   UNL     1       4.159   5.182  -9.330  0.00  0.00    +0.134 C 
ATOM     26  N   UNL     1       2.866   5.226 -10.182  0.00  0.00    -0.275 N 
ATOM     27  C   UNL     1       1.630   5.828  -9.784  0.00  0.00    +0.246 C 
ATOM     28  O   UNL     1       1.714   6.857  -9.128  0.00  0.00    -0.273 OA
ATOM     29  C   UNL     1       3.527   5.750 -11.516  0.00  0.00    +0.076 C 
ATOM     30  C   UNL     1       3.611   7.186 -10.767  0.00  0.00    +0.022 C 
ATOM     31  C   UNL     1       5.090   5.316 -11.248  0.00  0.00    +0.020 C 
ATOM     32  C   UNL     1       5.704   6.486 -10.585  0.00  0.00    +0.004 C 
ATOM     33  C   UNL     1       4.536   6.835  -9.511  0.00  0.00    +0.027 C 
BRANCH  27  34
ATOM     34  C   UNL     1       0.398   4.819  -9.569  0.00  0.00    +0.175 C 
BRANCH  34  35
ATOM     35  C   UNL     1      -0.389   5.397 -10.892  0.00  0.00    +0.029 C 
ATOM     36  C   UNL     1      -0.108   6.863 -10.971  0.00  0.00    +0.002 C 
ATOM     37  C   UNL     1       0.300   4.741 -12.072  0.00  0.00    +0.002 C 
ENDBRANCH  34  35
BRANCH  34  38
ATOM     38  N   UNL     1      -0.423   5.749  -8.595  0.00  0.00    -0.161 NA
ATOM     39  C   UNL     1      -0.541   5.305  -7.269  0.00  0.00    +0.422 C 
ATOM     40  O   UNL     1       0.386   4.591  -6.807  0.00  0.00    -0.225 OA
BRANCH  39  41
ATOM     41  O   UNL     1      -1.513   5.724  -6.377  0.00  0.00    -0.429 OA
ATOM     42  C   UNL     1      -1.194   6.690  -5.380  0.00  0.00    +0.257 C 
ENDBRANCH  39  41
ENDBRANCH  34  38
ENDBRANCH  27  34
ENDBRANCH  21  25
ENDBRANCH   9  16
BRANCH   1  45
ATOM     43  C   UNL     1       6.164  13.488   3.539  0.00  0.00    +0.157 A 
ATOM     44  N   UNL     1       4.883  13.036   3.647  0.00  0.00    -0.227 NA
ATOM     45  C   UNL     1       4.869  11.683   3.649  0.00  0.00    +0.102 A 
ATOM     46  C   UNL     1       6.224  11.372   3.749  0.00  0.00    +0.119 A 
ATOM     47  N   UNL     1       6.813  12.416   3.114  0.00  0.00    -0.226 NA
BRANCH  43  50
ATOM     48  C   UNL     1       8.593  13.952   2.212  0.00  0.00    +0.246 C 
ATOM     49  N   UNL     1       7.389  14.535   1.872  0.00  0.00    -0.273 N 
ATOM     50  C   UNL     1       6.272  14.961   2.891  0.00  0.00    +0.134 C 
ATOM     51  C   UNL     1       5.034  14.733   1.832  0.00  0.00    +0.029 C 
ATOM     52  C   UNL     1       5.602  13.907   0.804  0.00  0.00    +0.020 C 
ATOM     53  C   UNL     1       4.735  13.629  -0.366  0.00  0.00    +0.002 C 
ATOM     54  C   UNL     1       5.548  12.603   0.288  0.00  0.00    +0.002 C 
ATOM     55  C   UNL     1       6.863  14.734   0.560  0.00  0.00    +0.094 C 
ATOM     56  O   UNL     1       8.821  13.287   3.222  0.00  0.00    -0.273 OA
BRANCH  48  57
ATOM     57  C   UNL     1       9.850  14.584   1.417  0.00  0.00    +0.175 C 
BRANCH  57  59
ATOM     58  C   UNL     1      11.994  15.029   2.735  0.00  0.00    +0.422 C 
ATOM     59  N   UNL     1      10.786  14.365   2.656  0.00  0.00    -0.161 NA
ATOM     60  O   UNL     1      11.991  16.231   2.416  0.00  0.00    -0.225 OA
BRANCH  58  62
ATOM     61  C   UNL     1      13.635  13.787   3.564  0.00  0.00    +0.257 C 
ATOM     62  O   UNL     1      12.902  14.698   3.750  0.00  0.00    -0.429 OA
ENDBRANCH  58  62
ENDBRANCH  57  59
BRANCH  57  63
ATOM     63  C   UNL     1      10.227  13.170   0.665  0.00  0.00    +0.029 C 
ATOM     64  C   UNL     1      11.714  13.318   0.323  0.00  0.00    +0.002 C 
ATOM     65  C   UNL     1       9.625  13.269  -0.737  0.00  0.00    +0.002 C 
ENDBRANCH  57  63
ENDBRANCH  48  57
ENDBRANCH  43  50
ENDBRANCH   1  45
TORSDOF 12
ENDMDL
MODEL 7
REMARK VINA RESULT:      -7.8      1.916     15.368
REMARK  Name = 
REMARK  12 active torsions:
REMARK  status: ('A' for Active; 'I' for Inactive)
REMARK    1  A    between atoms: O_2  and  C_3
REMARK    2  A    between atoms: N_5  and  C_6
REMARK    3  A    between atoms: C_6  and  C_7
REMARK    4  A    between atoms: C_6  and  C_63
REMARK    5  A    between atoms: C_15  and  C_16
REMARK    6  A    between atoms: C_19  and  C_20
REMARK    7  A    between atoms: C_31  and  C_32
REMARK    8  A    between atoms: C_37  and  C_38
REMARK    9  A    between atoms: C_45  and  C_47
REMARK   10  A    between atoms: C_47  and  N_48
REMARK   11  A    between atoms: C_47  and  C_53
REMARK   12  A    between atoms: C_49  and  O_51
REMARK                            x       y       z     vdW  Elec       q    Type
REMARK                         _______ _______ _______ _____ _____    ______ ____
ROOT
ATOM      1  C   UNL     1       3.267   5.549  -4.814  0.00  0.00    +0.019 A 
ATOM      2  C   UNL     1       3.620   6.395  -5.858  0.00  0.00    +0.003 A 
ATOM      3  C   UNL     1       3.164   6.209  -7.162  0.00  0.00    +0.042 A 
ATOM      4  C   UNL     1       2.887   7.198  -8.252  0.00  0.00    +0.301 C 
ATOM      5  C   UNL     1       1.543   6.830  -8.804  0.00  0.00    +0.042 A 
ATOM      6  C   UNL     1       1.221   5.583  -8.283  0.00  0.00    +0.001 A 
ATOM      7  C   UNL     1       0.040   4.988  -8.712  0.00  0.00    -0.000 A 
ATOM      8  C   UNL     1      -0.568   5.479  -9.861  0.00  0.00    -0.000 A 
ATOM      9  C   UNL     1       0.074   6.380 -10.706  0.00  0.00    -0.000 A 
ATOM     10  C   UNL     1       1.065   7.124 -10.078  0.00  0.00    +0.001 A 
ATOM     11  F   UNL     1       3.870   7.170  -9.206  0.00  0.00    -0.195 F 
ATOM     12  F   UNL     1       2.807   8.482  -7.749  0.00  0.00    -0.195 F 
ATOM     13  C   UNL     1       2.347   5.123  -7.455  0.00  0.00    +0.001 A 
ATOM     14  C   UNL     1       2.455   4.072  -6.550  0.00  0.00    -0.000 A 
ATOM     15  C   UNL     1       2.881   4.281  -5.240  0.00  0.00    +0.002 A 
ENDROOT
BRANCH   9  16
ATOM     16  C   UNL     1       0.226   6.083 -12.148  0.00  0.00    +0.002 A 
ATOM     17  C   UNL     1       0.951   6.934 -12.980  0.00  0.00    +0.021 A 
ATOM     18  C   UNL     1       2.007   6.506 -13.749  0.00  0.00    +0.100 A 
ATOM     19  C   UNL     1       1.910   5.193 -14.196  0.00  0.00    +0.100 A 
ATOM     20  N   UNL     1       2.987   5.039 -14.966  0.00  0.00    -0.228 NA
ATOM     21  C   UNL     1       3.494   6.266 -15.274  0.00  0.00    +0.157 A 
ATOM     22  C   UNL     1       0.963   4.329 -13.659  0.00  0.00    +0.021 A 
ATOM     23  N   UNL     1       3.186   7.004 -14.182  0.00  0.00    -0.228 NA
ATOM     24  C   UNL     1       0.235   4.754 -12.554  0.00  0.00    +0.002 A 
BRANCH  21  25
ATOM     25  C   UNL     1       5.042   6.035 -15.655  0.00  0.00    +0.134 C 
ATOM     26  N   UNL     1       5.051   7.042 -16.833  0.00  0.00    -0.275 N 
ATOM     27  C   UNL     1       4.134   8.127 -17.006  0.00  0.00    +0.246 C 
ATOM     28  O   UNL     1       3.779   8.704 -15.988  0.00  0.00    -0.273 OA
ATOM     29  C   UNL     1       6.588   7.399 -16.774  0.00  0.00    +0.076 C 
ATOM     30  C   UNL     1       6.211   8.266 -15.457  0.00  0.00    +0.022 C 
ATOM     31  C   UNL     1       7.155   6.083 -15.966  0.00  0.00    +0.020 C 
ATOM     32  C   UNL     1       7.100   6.457 -14.537  0.00  0.00    +0.004 C 
ATOM     33  C   UNL     1       5.624   7.136 -14.489  0.00  0.00    +0.027 C 
BRANCH  27  34
ATOM     34  C   UNL     1       3.149   8.013 -18.270  0.00  0.00    +0.175 C 
BRANCH  34  35
ATOM     35  C   UNL     1       3.474   9.555 -18.743  0.00  0.00    +0.029 C 
ATOM     36  C   UNL     1       2.902  10.467 -17.706  0.00  0.00    +0.002 C 
ATOM     37  C   UNL     1       4.983   9.674 -18.666  0.00  0.00    +0.002 C 
ENDBRANCH  34  35
BRANCH  34  38
ATOM     38  N   UNL     1       1.838   8.455 -17.511  0.00  0.00    -0.161 NA
ATOM     39  C   UNL     1       0.626   7.995 -18.050  0.00  0.00    +0.422 C 
ATOM     40  O   UNL     1       0.641   6.902 -18.673  0.00  0.00    -0.225 OA
BRANCH  39  41
ATOM     41  O   UNL     1      -0.613   8.562 -17.810  0.00  0.00    -0.429 OA
ATOM     42  C   UNL     1      -1.783   7.978 -18.375  0.00  0.00    +0.257 C 
ENDBRANCH  39  41
ENDBRANCH  34  38
ENDBRANCH  27  34
ENDBRANCH  21  25
ENDBRANCH   9  16
BRANCH   1  45
ATOM     43  C   UNL     1       1.308   6.061  -1.845  0.00  0.00    +0.157 A 
ATOM     44  N   UNL     1       2.289   5.368  -2.488  0.00  0.00    -0.227 NA
ATOM     45  C   UNL     1       2.750   6.087  -3.539  0.00  0.00    +0.102 A 
ATOM     46  C   UNL     1       2.132   7.322  -3.347  0.00  0.00    +0.119 A 
ATOM     47  N   UNL     1       0.971   6.978  -2.736  0.00  0.00    -0.226 NA
BRANCH  43  50
ATOM     48  C   UNL     1       0.360   7.207   0.535  0.00  0.00    +0.246 C 
ATOM     49  N   UNL     1      -0.350   6.315  -0.244  0.00  0.00    -0.273 N 
ATOM     50  C   UNL     1       0.277   5.116  -1.043  0.00  0.00    +0.134 C 
ATOM     51  C   UNL     1      -0.868   5.132  -2.224  0.00  0.00    +0.029 C 
ATOM     52  C   UNL     1      -1.480   6.425  -2.099  0.00  0.00    +0.020 C 
ATOM     53  C   UNL     1      -2.647   6.685  -2.977  0.00  0.00    +0.002 C 
ATOM     54  C   UNL     1      -1.579   7.662  -2.755  0.00  0.00    +0.002 C 
ATOM     55  C   UNL     1      -1.733   6.379  -0.593  0.00  0.00    +0.094 C 
ATOM     56  O   UNL     1       1.547   7.503   0.405  0.00  0.00    -0.273 OA
BRANCH  48  57
ATOM     57  C   UNL     1      -0.351   7.513   1.953  0.00  0.00    +0.175 C 
BRANCH  57  59
ATOM     58  C   UNL     1       1.639   8.352   3.320  0.00  0.00    +0.422 C 
ATOM     59  N   UNL     1       0.736   8.589   2.303  0.00  0.00    -0.161 NA
ATOM     60  O   UNL     1       2.140   7.214   3.367  0.00  0.00    -0.225 OA
BRANCH  58  62
ATOM     61  C   UNL     1       2.083  10.493   3.697  0.00  0.00    +0.257 C 
ATOM     62  O   UNL     1       2.489   9.382   3.745  0.00  0.00    -0.429 OA
ENDBRANCH  58  62
ENDBRANCH  57  59
BRANCH  57  63
ATOM     63  C   UNL     1      -1.435   8.568   1.307  0.00  0.00    +0.029 C 
ATOM     64  C   UNL     1      -0.933   9.942   1.766  0.00  0.00    +0.002 C 
ATOM     65  C   UNL     1      -2.695   8.451   2.166  0.00  0.00    +0.002 C 
ENDBRANCH  57  63
ENDBRANCH  48  57
ENDBRANCH  43  50
ENDBRANCH   1  45
TORSDOF 12
ENDMDL
MODEL 8
REMARK VINA RESULT:      -7.5      2.115     14.618
REMARK  Name = 
REMARK  12 active torsions:
REMARK  status: ('A' for Active; 'I' for Inactive)
REMARK    1  A    between atoms: O_2  and  C_3
REMARK    2  A    between atoms: N_5  and  C_6
REMARK    3  A    between atoms: C_6  and  C_7
REMARK    4  A    between atoms: C_6  and  C_63
REMARK    5  A    between atoms: C_15  and  C_16
REMARK    6  A    between atoms: C_19  and  C_20
REMARK    7  A    between atoms: C_31  and  C_32
REMARK    8  A    between atoms: C_37  and  C_38
REMARK    9  A    between atoms: C_45  and  C_47
REMARK   10  A    between atoms: C_47  and  N_48
REMARK   11  A    between atoms: C_47  and  C_53
REMARK   12  A    between atoms: C_49  and  O_51
REMARK                            x       y       z     vdW  Elec       q    Type
REMARK                         _______ _______ _______ _____ _____    ______ ____
ROOT
ATOM      1  C   UNL     1      -0.006   5.928  -1.297  0.00  0.00    +0.019 A 
ATOM      2  C   UNL     1       1.153   6.173  -2.022  0.00  0.00    +0.003 A 
ATOM      3  C   UNL     1       1.250   5.920  -3.390  0.00  0.00    +0.042 A 
ATOM      4  C   UNL     1       2.061   6.593  -4.454  0.00  0.00    +0.301 C 
ATOM      5  C   UNL     1       1.116   6.839  -5.591  0.00  0.00    +0.042 A 
ATOM      6  C   UNL     1      -0.039   6.116  -5.320  0.00  0.00    +0.001 A 
ATOM      7  C   UNL     1      -1.047   6.125  -6.277  0.00  0.00    -0.000 A 
ATOM      8  C   UNL     1      -0.733   6.545  -7.564  0.00  0.00    -0.000 A 
ATOM      9  C   UNL     1       0.583   6.736  -7.975  0.00  0.00    -0.000 A 
ATOM     10  C   UNL     1       1.461   6.998  -6.931  0.00  0.00    +0.001 A 
ATOM     11  F   UNL     1       3.131   5.821  -4.821  0.00  0.00    -0.195 F 
ATOM     12  F   UNL     1       2.536   7.814  -4.019  0.00  0.00    -0.195 F 
ATOM     13  C   UNL     1       0.164   5.374  -4.065  0.00  0.00    +0.001 A 
ATOM     14  C   UNL     1      -0.728   4.689  -3.246  0.00  0.00    -0.000 A 
ATOM     15  C   UNL     1      -0.835   4.978  -1.887  0.00  0.00    +0.002 A 
ENDROOT
BRANCH   9  16
ATOM     16  C   UNL     1       1.104   6.046  -9.176  0.00  0.00    +0.002 A 
ATOM     17  C   UNL     1       2.037   6.665 -10.006  0.00  0.00    +0.021 A 
ATOM     18  C   UNL     1       3.252   6.101 -10.316  0.00  0.00    +0.100 A 
ATOM     19  C   UNL     1       3.255   4.711 -10.365  0.00  0.00    +0.100 A 
ATOM     20  N   UNL     1       4.495   4.410 -10.752  0.00  0.00    -0.228 NA
ATOM     21  C   UNL     1       5.084   5.526 -11.268  0.00  0.00    +0.157 A 
ATOM     22  C   UNL     1       2.188   3.981  -9.859  0.00  0.00    +0.021 A 
ATOM     23  N   UNL     1       4.511   6.526 -10.559  0.00  0.00    -0.228 NA
ATOM     24  C   UNL     1       1.200   4.660  -9.154  0.00  0.00    +0.002 A 
BRANCH  21  25
ATOM     25  C   UNL     1       6.674   5.294 -11.154  0.00  0.00    +0.134 C 
ATOM     26  N   UNL     1       6.988   5.731 -12.607  0.00  0.00    -0.275 N 
ATOM     27  C   UNL     1       6.159   6.568 -13.420  0.00  0.00    +0.246 C 
ATOM     28  O   UNL     1       5.577   7.477 -12.845  0.00  0.00    -0.273 OA
ATOM     29  C   UNL     1       8.469   6.211 -12.351  0.00  0.00    +0.076 C 
ATOM     30  C   UNL     1       7.798   7.504 -11.639  0.00  0.00    +0.022 C 
ATOM     31  C   UNL     1       8.799   5.392 -10.964  0.00  0.00    +0.020 C 
ATOM     32  C   UNL     1       8.404   6.310  -9.874  0.00  0.00    +0.004 C 
ATOM     33  C   UNL     1       6.973   6.819 -10.451  0.00  0.00    +0.027 C 
BRANCH  27  34
ATOM     34  C   UNL     1       5.510   5.866 -14.711  0.00  0.00    +0.175 C 
BRANCH  34  35
ATOM     35  C   UNL     1       5.997   7.086 -15.699  0.00  0.00    +0.029 C 
ATOM     36  C   UNL     1       7.144   6.571 -16.508  0.00  0.00    +0.002 C 
ATOM     37  C   UNL     1       4.836   7.304 -16.649  0.00  0.00    +0.002 C 
ENDBRANCH  34  35
BRANCH  34  38
ATOM     38  N   UNL     1       4.071   6.489 -14.545  0.00  0.00    -0.161 NA
ATOM     39  C   UNL     1       3.009   5.577 -14.443  0.00  0.00    +0.422 C 
ATOM     40  O   UNL     1       3.254   4.448 -13.946  0.00  0.00    -0.225 OA
BRANCH  39  41
ATOM     41  O   UNL     1       1.681   5.877 -14.693  0.00  0.00    -0.429 OA
ATOM     42  C   UNL     1       1.316   7.186 -15.121  0.00  0.00    +0.257 C 
ENDBRANCH  39  41
ENDBRANCH  34  38
ENDBRANCH  27  34
ENDBRANCH  21  25
ENDBRANCH   9  16
BRANCH   1  45
ATOM     43  C   UNL     1      -0.962   7.821   1.604  0.00  0.00    +0.157 A 
ATOM     44  N   UNL     1      -0.005   7.491   0.691  0.00  0.00    -0.227 NA
ATOM     45  C   UNL     1      -0.583   6.961  -0.412  0.00  0.00    +0.102 A 
ATOM     46  C   UNL     1      -1.938   7.195  -0.179  0.00  0.00    +0.119 A 
ATOM     47  N   UNL     1      -2.016   7.148   1.175  0.00  0.00    -0.226 NA
BRANCH  43  50
ATOM     48  C   UNL     1       1.487   9.160   1.905  0.00  0.00    +0.246 C 
ATOM     49  N   UNL     1       0.511   9.079   2.880  0.00  0.00    -0.273 N 
ATOM     50  C   UNL     1      -0.420   7.837   3.123  0.00  0.00    +0.134 C 
ATOM     51  C   UNL     1      -1.675   8.727   3.705  0.00  0.00    +0.029 C 
ATOM     52  C   UNL     1      -1.388  10.064   3.266  0.00  0.00    +0.020 C 
ATOM     53  C   UNL     1      -2.306  11.123   3.750  0.00  0.00    +0.002 C 
ATOM     54  C   UNL     1      -1.834  11.044   2.367  0.00  0.00    +0.002 C 
ATOM     55  C   UNL     1       0.062  10.121   3.744  0.00  0.00    +0.094 C 
ATOM     56  O   UNL     1       1.510   8.538   0.844  0.00  0.00    -0.273 OA
BRANCH  48  57
ATOM     57  C   UNL     1       2.870   9.795   2.446  0.00  0.00    +0.175 C 
BRANCH  57  59
ATOM     58  C   UNL     1       4.382   7.749   2.191  0.00  0.00    +0.422 C 
ATOM     59  N   UNL     1       3.708   8.789   1.582  0.00  0.00    -0.161 NA
ATOM     60  O   UNL     1       3.768   7.133   3.080  0.00  0.00    -0.225 OA
BRANCH  58  62
ATOM     61  C   UNL     1       5.126   6.934   0.267  0.00  0.00    +0.257 C 
ATOM     62  O   UNL     1       5.267   6.963   1.442  0.00  0.00    -0.429 OA
ENDBRANCH  58  62
ENDBRANCH  57  59
BRANCH  57  63
ATOM     63  C   UNL     1       2.872  11.013   1.341  0.00  0.00    +0.029 C 
ATOM     64  C   UNL     1       3.703  10.458   0.179  0.00  0.00    +0.002 C 
ATOM     65  C   UNL     1       3.843  12.064   1.879  0.00  0.00    +0.002 C 
ENDBRANCH  57  63
ENDBRANCH  48  57
ENDBRANCH  43  50
ENDBRANCH   1  45
TORSDOF 12
ENDMDL
MODEL 9
REMARK VINA RESULT:      -7.2      3.853      7.167
REMARK  Name = 
REMARK  12 active torsions:
REMARK  status: ('A' for Active; 'I' for Inactive)
REMARK    1  A    between atoms: O_2  and  C_3
REMARK    2  A    between atoms: N_5  and  C_6
REMARK    3  A    between atoms: C_6  and  C_7
REMARK    4  A    between atoms: C_6  and  C_63
REMARK    5  A    between atoms: C_15  and  C_16
REMARK    6  A    between atoms: C_19  and  C_20
REMARK    7  A    between atoms: C_31  and  C_32
REMARK    8  A    between atoms: C_37  and  C_38
REMARK    9  A    between atoms: C_45  and  C_47
REMARK   10  A    between atoms: C_47  and  N_48
REMARK   11  A    between atoms: C_47  and  C_53
REMARK   12  A    between atoms: C_49  and  O_51
REMARK                            x       y       z     vdW  Elec       q    Type
REMARK                         _______ _______ _______ _____ _____    ______ ____
ROOT
ATOM      1  C   UNL     1       4.117   4.878  -5.501  0.00  0.00    +0.019 A 
ATOM      2  C   UNL     1       3.789   4.533  -4.196  0.00  0.00    +0.003 A 
ATOM      3  C   UNL     1       3.992   5.395  -3.119  0.00  0.00    +0.042 A 
ATOM      4  C   UNL     1       3.244   5.541  -1.829  0.00  0.00    +0.301 C 
ATOM      5  C   UNL     1       3.010   7.013  -1.660  0.00  0.00    +0.042 A 
ATOM      6  C   UNL     1       3.799   7.658  -2.604  0.00  0.00    +0.001 A 
ATOM      7  C   UNL     1       3.811   9.048  -2.595  0.00  0.00    -0.000 A 
ATOM      8  C   UNL     1       3.334   9.706  -1.468  0.00  0.00    -0.000 A 
ATOM      9  C   UNL     1       3.062   9.031  -0.282  0.00  0.00    -0.000 A 
ATOM     10  C   UNL     1       2.790   7.680  -0.459  0.00  0.00    +0.001 A 
ATOM     11  F   UNL     1       3.948   5.001  -0.786  0.00  0.00    -0.195 F 
ATOM     12  F   UNL     1       2.015   4.916  -1.894  0.00  0.00    -0.195 F 
ATOM     13  C   UNL     1       4.571   6.640  -3.335  0.00  0.00    +0.001 A 
ATOM     14  C   UNL     1       5.326   6.719  -4.501  0.00  0.00    -0.000 A 
ATOM     15  C   UNL     1       5.088   5.872  -5.581  0.00  0.00    +0.002 A 
ENDROOT
BRANCH   9  16
ATOM     16  C   UNL     1       3.686   9.462   0.990  0.00  0.00    +0.002 A 
ATOM     17  C   UNL     1       4.737  10.377   0.995  0.00  0.00    +0.021 A 
ATOM     18  C   UNL     1       4.703  11.550   1.712  0.00  0.00    +0.100 A 
ATOM     19  C   UNL     1       3.972  11.491   2.893  0.00  0.00    +0.100 A 
ATOM     20  N   UNL     1       4.148  12.695   3.436  0.00  0.00    -0.228 NA
ATOM     21  C   UNL     1       5.207  13.306   2.833  0.00  0.00    +0.157 A 
ATOM     22  C   UNL     1       3.126  10.419   3.151  0.00  0.00    +0.021 A 
ATOM     23  N   UNL     1       5.164  12.812   1.573  0.00  0.00    -0.228 NA
ATOM     24  C   UNL     1       2.900   9.498   2.135  0.00  0.00    +0.002 A 
BRANCH  21  25
ATOM     25  C   UNL     1       5.012  14.887   3.063  0.00  0.00    +0.134 C 
ATOM     26  N   UNL     1       6.525  15.221   3.068  0.00  0.00    -0.275 N 
ATOM     27  C   UNL     1       7.553  14.420   2.476  0.00  0.00    +0.246 C 
ATOM     28  O   UNL     1       7.269  13.860   1.426  0.00  0.00    -0.273 OA
ATOM     29  C   UNL     1       6.399  16.714   2.572  0.00  0.00    +0.076 C 
ATOM     30  C   UNL     1       6.093  16.076   1.113  0.00  0.00    +0.022 C 
ATOM     31  C   UNL     1       4.831  17.014   2.970  0.00  0.00    +0.020 C 
ATOM     32  C   UNL     1       4.053  16.640   1.769  0.00  0.00    +0.004 C 
ATOM     33  C   UNL     1       4.770  15.227   1.409  0.00  0.00    +0.027 C 
BRANCH  27  34
ATOM     34  C   UNL     1       8.598  13.757   3.500  0.00  0.00    +0.175 C 
BRANCH  34  35
ATOM     35  C   UNL     1       9.862  14.578   2.842  0.00  0.00    +0.029 C 
ATOM     36  C   UNL     1      10.165  15.728   3.748  0.00  0.00    +0.002 C 
ATOM     37  C   UNL     1      11.034  13.619   2.925  0.00  0.00    +0.002 C 
ENDBRANCH  34  35
BRANCH  34  38
ATOM     38  N   UNL     1       8.901  12.472   2.636  0.00  0.00    -0.161 NA
ATOM     39  C   UNL     1       8.341  11.270   3.097  0.00  0.00    +0.422 C 
ATOM     40  O   UNL     1       7.267  11.338   3.749  0.00  0.00    -0.225 OA
BRANCH  39  41
ATOM     41  O   UNL     1       8.785  10.006   2.752  0.00  0.00    -0.429 OA
ATOM     42  C   UNL     1       8.894   8.994   3.749  0.00  0.00    +0.257 C 
ENDBRANCH  39  41
ENDBRANCH  34  38
ENDBRANCH  27  34
ENDBRANCH  21  25
ENDBRANCH   9  16
BRANCH   1  45
ATOM     43  C   UNL     1       1.742   5.533  -8.118  0.00  0.00    +0.157 A 
ATOM     44  N   UNL     1       3.041   5.475  -7.712  0.00  0.00    -0.227 NA
ATOM     45  C   UNL     1       3.144   4.709  -6.600  0.00  0.00    +0.102 A 
ATOM     46  C   UNL     1       1.868   4.154  -6.504  0.00  0.00    +0.119 A 
ATOM     47  N   UNL     1       1.086   5.119  -7.047  0.00  0.00    -0.226 NA
BRANCH  43  50
ATOM     48  C   UNL     1       3.504   5.980 -10.256  0.00  0.00    +0.246 C 
ATOM     49  N   UNL     1       2.177   6.361 -10.240  0.00  0.00    -0.273 N 
ATOM     50  C   UNL     1       1.396   6.858  -8.970  0.00  0.00    +0.134 C 
ATOM     51  C   UNL     1      -0.064   6.307  -9.490  0.00  0.00    +0.029 C 
ATOM     52  C   UNL     1       0.267   5.361 -10.519  0.00  0.00    +0.020 C 
ATOM     53  C   UNL     1      -0.876   4.776 -11.262  0.00  0.00    +0.002 C 
ATOM     54  C   UNL     1       0.260   3.984 -10.788  0.00  0.00    +0.002 C 
ATOM     55  C   UNL     1       1.230   6.251 -11.302  0.00  0.00    +0.094 C 
ATOM     56  O   UNL     1       4.150   5.548  -9.302  0.00  0.00    -0.273 OA
BRANCH  48  57
ATOM     57  C   UNL     1       4.317   6.573 -11.520  0.00  0.00    +0.175 C 
BRANCH  57  59
ATOM     58  C   UNL     1       6.747   7.235 -11.081  0.00  0.00    +0.422 C 
ATOM     59  N   UNL     1       5.679   6.421 -10.757  0.00  0.00    -0.161 NA
ATOM     60  O   UNL     1       6.494   8.439 -11.259  0.00  0.00    -0.225 OA
BRANCH  58  62
ATOM     61  C   UNL     1       8.056   6.643  -9.390  0.00  0.00    +0.257 C 
ATOM     62  O   UNL     1       8.007   6.978 -10.524  0.00  0.00    -0.429 OA
ENDBRANCH  58  62
ENDBRANCH  57  59
BRANCH  57  63
ATOM     63  C   UNL     1       4.391   5.123 -12.294  0.00  0.00    +0.029 C 
ATOM     64  C   UNL     1       5.844   5.032 -12.773  0.00  0.00    +0.002 C 
ATOM     65  C   UNL     1       3.686   5.328 -13.635  0.00  0.00    +0.002 C 
ENDBRANCH  57  63
ENDBRANCH  48  57
ENDBRANCH  43  50
ENDBRANCH   1  45
TORSDOF 12
ENDMDL
