MODEL 1
REMARK VINA RESULT:      -8.4      0.000      0.000
REMARK  Name = 
REMARK  2 active torsions:
REMARK  status: ('A' for Active; 'I' for Inactive)
REMARK    1  A    between atoms: C_2  and  C_3
REMARK    2  A    between atoms: C_21  and  C_22
REMARK                            x       y       z     vdW  Elec       q    Type
REMARK                         _______ _______ _______ _____ _____    ______ ____
ROOT
ATOM      1  C   UNL     1       3.230   6.353  -7.156  0.00  0.00    +0.180 C 
ATOM      2  C   UNL     1       2.434   5.134  -7.088  0.00  0.00    +0.037 C 
ATOM      3  C   UNL     1       0.952   5.574  -7.629  0.00  0.00    +0.003 C 
ATOM      4  C   UNL     1       0.065   4.941  -6.298  0.00  0.00    +0.001 C 
ATOM      5  C   UNL     1       0.752   5.943  -5.120  0.00  0.00    +0.004 C 
ATOM      6  C   UNL     1       1.853   4.844  -4.677  0.00  0.00    +0.000 C 
ATOM      7  C   UNL     1      -0.368   5.326  -3.983  0.00  0.00    +0.019 C 
ATOM      8  C   UNL     1      -1.376   6.564  -4.244  0.00  0.00    -0.042 C 
ATOM      9  C   UNL     1      -2.391   6.425  -3.400  0.00  0.00    +0.029 C 
ATOM     10  C   UNL     1      -2.010   5.822  -2.114  0.00  0.00    +0.173 C 
ATOM     11  C   UNL     1      -0.607   5.973  -1.614  0.00  0.00    +0.069 C 
ATOM     12  O   UNL     1      -2.750   5.000  -1.500  0.00  0.00    -0.291 OA
ATOM     13  C   UNL     1      -1.433   6.913  -5.641  0.00  0.00    +0.022 C 
ATOM     14  C   UNL     1       0.379   6.125  -2.747  0.00  0.00    +0.012 C 
ATOM     15  C   UNL     1      -1.183   5.910  -6.648  0.00  0.00    +0.004 C 
ATOM     16  C   UNL     1       1.055   7.117  -7.064  0.00  0.00    +0.004 C 
ATOM     17  C   UNL     1       2.383   4.290  -5.939  0.00  0.00    +0.003 C 
ATOM     18  C   UNL     1       2.359   7.465  -7.732  0.00  0.00    +0.043 C 
ATOM     19  O   UNL     1       4.280   6.209  -8.084  0.00  0.00    -0.212 OA
ENDROOT
BRANCH   1  21
ATOM     20  C   UNL     1       4.337   7.246  -4.993  0.00  0.00    -0.012 C 
ATOM     21  C   UNL     1       3.840   6.787  -5.885  0.00  0.00    -0.049 C 
ENDBRANCH   1  21
BRANCH   2  22
ATOM     22  C   UNL     1       2.842   4.240  -8.267  0.00  0.00    +0.003 C 
ATOM     23  C   UNL     1       1.828   4.265  -9.373  0.00  0.00    +0.000 C 
ENDBRANCH   2  22
TORSDOF 2
ENDMDL
MODEL 2
REMARK VINA RESULT:      -7.8      3.058      7.021
REMARK  Name = 
REMARK  2 active torsions:
REMARK  status: ('A' for Active; 'I' for Inactive)
REMARK    1  A    between atoms: C_2  and  C_3
REMARK    2  A    between atoms: C_21  and  C_22
REMARK                            x       y       z     vdW  Elec       q    Type
REMARK                         _______ _______ _______ _____ _____    ______ ____
ROOT
ATOM      1  C   UNL     1       3.353   5.378  -7.262  0.00  0.00    +0.180 C 
ATOM      2  C   UNL     1       2.511   6.474  -7.724  0.00  0.00    +0.037 C 
ATOM      3  C   UNL     1       1.078   5.772  -8.092  0.00  0.00    +0.003 C 
ATOM      4  C   UNL     1       0.942   6.430  -9.675  0.00  0.00    +0.001 C 
ATOM      5  C   UNL     1       2.320   5.682 -10.310  0.00  0.00    +0.004 C 
ATOM      6  C   UNL     1       3.266   6.968 -10.052  0.00  0.00    +0.000 C 
ATOM      7  C   UNL     1       1.889   6.270 -11.859  0.00  0.00    +0.019 C 
ATOM      8  C   UNL     1       1.142   4.881 -12.223  0.00  0.00    -0.042 C 
ATOM      9  C   UNL     1       0.730   4.979 -13.480  0.00  0.00    +0.029 C 
ATOM     10  C   UNL     1       1.622   5.778 -14.333  0.00  0.00    +0.173 C 
ATOM     11  C   UNL     1       3.075   5.884 -13.989  0.00  0.00    +0.069 C 
ATOM     12  O   UNL     1       1.189   6.558 -15.231  0.00  0.00    -0.291 OA
ATOM     13  C   UNL     1       0.413   4.363 -11.094  0.00  0.00    +0.022 C 
ATOM     14  C   UNL     1       3.312   5.735 -12.506  0.00  0.00    +0.012 C 
ATOM     15  C   UNL     1      -0.100   5.263 -10.088  0.00  0.00    +0.004 C 
ATOM     16  C   UNL     1       1.745   4.336  -8.548  0.00  0.00    +0.004 C 
ATOM     17  C   UNL     1       2.929   7.434  -8.692  0.00  0.00    +0.003 C 
ATOM     18  C   UNL     1       2.528   4.095  -7.284  0.00  0.00    +0.043 C 
ATOM     19  O   UNL     1       3.698   5.553  -5.908  0.00  0.00    -0.212 OA
ENDROOT
BRANCH   1  21
ATOM     20  C   UNL     1       5.617   4.960  -8.446  0.00  0.00    -0.012 C 
ATOM     21  C   UNL     1       4.614   5.188  -8.003  0.00  0.00    -0.049 C 
ENDBRANCH   1  21
BRANCH   2  22
ATOM     22  C   UNL     1       2.056   7.268  -6.492  0.00  0.00    +0.003 C 
ATOM     23  C   UNL     1       0.639   6.956  -6.109  0.00  0.00    +0.000 C 
ENDBRANCH   2  22
TORSDOF 2
ENDMDL
MODEL 3
REMARK VINA RESULT:      -7.6      2.304      4.141
REMARK  Name = 
REMARK  2 active torsions:
REMARK  status: ('A' for Active; 'I' for Inactive)
REMARK    1  A    between atoms: C_2  and  C_3
REMARK    2  A    between atoms: C_21  and  C_22
REMARK                            x       y       z     vdW  Elec       q    Type
REMARK                         _______ _______ _______ _____ _____    ______ ____
ROOT
ATOM      1  C   UNL     1       1.245   5.368  -8.230  0.00  0.00    +0.180 C 
ATOM      2  C   UNL     1       2.121   6.468  -7.850  0.00  0.00    +0.037 C 
ATOM      3  C   UNL     1       3.529   5.750  -7.420  0.00  0.00    +0.003 C 
ATOM      4  C   UNL     1       3.683   6.526  -5.893  0.00  0.00    +0.001 C 
ATOM      5  C   UNL     1       2.278   5.876  -5.209  0.00  0.00    +0.004 C 
ATOM      6  C   UNL     1       1.377   7.168  -5.572  0.00  0.00    +0.000 C 
ATOM      7  C   UNL     1       2.723   6.569  -3.708  0.00  0.00    +0.019 C 
ATOM      8  C   UNL     1       3.422   5.189  -3.233  0.00  0.00    -0.042 C 
ATOM      9  C   UNL     1       3.834   5.371  -1.985  0.00  0.00    +0.029 C 
ATOM     10  C   UNL     1       2.966   6.264  -1.202  0.00  0.00    +0.173 C 
ATOM     11  C   UNL     1       1.519   6.391  -1.562  0.00  0.00    +0.069 C 
ATOM     12  O   UNL     1       3.422   7.096  -0.365  0.00  0.00    -0.291 OA
ATOM     13  C   UNL     1       4.137   4.559  -4.314  0.00  0.00    +0.022 C 
ATOM     14  C   UNL     1       1.282   6.134  -3.030  0.00  0.00    +0.012 C 
ATOM     15  C   UNL     1       4.683   5.360  -5.383  0.00  0.00    +0.004 C 
ATOM     16  C   UNL     1       2.813   4.378  -6.857  0.00  0.00    +0.004 C 
ATOM     17  C   UNL     1       1.733   7.515  -6.963  0.00  0.00    +0.003 C 
ATOM     18  C   UNL     1       2.026   4.064  -8.103  0.00  0.00    +0.043 C 
ATOM     19  O   UNL     1       0.909   5.449  -9.595  0.00  0.00    -0.212 OA
ENDROOT
BRANCH   1  21
ATOM     20  C   UNL     1      -1.032   5.112  -7.024  0.00  0.00    -0.012 C 
ATOM     21  C   UNL     1      -0.024   5.279  -7.484  0.00  0.00    -0.049 C 
ENDBRANCH   1  21
BRANCH   2  22
ATOM     22  C   UNL     1       2.607   7.148  -9.138  0.00  0.00    +0.003 C 
ATOM     23  C   UNL     1       3.998   6.726  -9.511  0.00  0.00    +0.000 C 
ENDBRANCH   2  22
TORSDOF 2
ENDMDL
MODEL 4
REMARK VINA RESULT:      -7.5      2.365      5.862
REMARK  Name = 
REMARK  2 active torsions:
REMARK  status: ('A' for Active; 'I' for Inactive)
REMARK    1  A    between atoms: C_2  and  C_3
REMARK    2  A    between atoms: C_21  and  C_22
REMARK                            x       y       z     vdW  Elec       q    Type
REMARK                         _______ _______ _______ _____ _____    ______ ____
ROOT
ATOM      1  C   UNL     1       2.329   6.295  -4.674  0.00  0.00    +0.180 C 
ATOM      2  C   UNL     1       2.770   5.076  -5.339  0.00  0.00    +0.037 C 
ATOM      3  C   UNL     1       4.015   5.547  -6.293  0.00  0.00    +0.003 C 
ATOM      4  C   UNL     1       3.424   4.839  -7.745  0.00  0.00    +0.001 C 
ATOM      5  C   UNL     1       2.016   5.771  -7.849  0.00  0.00    +0.004 C 
ATOM      6  C   UNL     1       1.094   4.646  -7.139  0.00  0.00    +0.000 C 
ATOM      7  C   UNL     1       1.715   5.089  -9.390  0.00  0.00    +0.019 C 
ATOM      8  C   UNL     1       2.426   6.342 -10.127  0.00  0.00    -0.042 C 
ATOM      9  C   UNL     1       2.288   6.155 -11.434  0.00  0.00    +0.029 C 
ATOM     10  C   UNL     1       1.035   5.478 -11.803  0.00  0.00    +0.173 C 
ATOM     11  C   UNL     1      -0.161   5.598 -10.911  0.00  0.00    +0.069 C 
ATOM     12  O   UNL     1       0.971   4.622 -12.733  0.00  0.00    -0.291 OA
ATOM     13  C   UNL     1       3.604   6.772  -9.418  0.00  0.00    +0.022 C 
ATOM     14  C   UNL     1       0.234   5.815  -9.471  0.00  0.00    +0.012 C 
ATOM     15  C   UNL     1       4.355   5.829  -8.624  0.00  0.00    +0.004 C 
ATOM     16  C   UNL     1       3.411   7.056  -6.566  0.00  0.00    +0.004 C 
ATOM     17  C   UNL     1       1.882   4.167  -5.986  0.00  0.00    +0.003 C 
ATOM     18  C   UNL     1       3.234   7.440  -5.120  0.00  0.00    +0.043 C 
ATOM     19  O   UNL     1       2.532   6.205  -3.284  0.00  0.00    -0.212 OA
ENDROOT
BRANCH   1  21
ATOM     20  C   UNL     1      -0.140   7.032  -4.922  0.00  0.00    -0.012 C 
ATOM     21  C   UNL     1       0.913   6.654  -4.876  0.00  0.00    -0.049 C 
ENDBRANCH   1  21
BRANCH   2  22
ATOM     22  C   UNL     1       3.572   4.251  -4.323  0.00  0.00    +0.003 C 
ATOM     23  C   UNL     1       5.039   4.566  -4.371  0.00  0.00    +0.000 C 
ENDBRANCH   2  22
TORSDOF 2
ENDMDL
MODEL 5
REMARK VINA RESULT:      -7.4      1.504      3.540
REMARK  Name = 
REMARK  2 active torsions:
REMARK  status: ('A' for Active; 'I' for Inactive)
REMARK    1  A    between atoms: C_2  and  C_3
REMARK    2  A    between atoms: C_21  and  C_22
REMARK                            x       y       z     vdW  Elec       q    Type
REMARK                         _______ _______ _______ _____ _____    ______ ____
ROOT
ATOM      1  C   UNL     1       2.522   4.857  -9.428  0.00  0.00    +0.180 C 
ATOM      2  C   UNL     1       2.891   6.027  -8.641  0.00  0.00    +0.037 C 
ATOM      3  C   UNL     1       3.379   5.423  -7.199  0.00  0.00    +0.003 C 
ATOM      4  C   UNL     1       2.377   6.422  -6.222  0.00  0.00    +0.001 C 
ATOM      5  C   UNL     1       0.901   5.841  -6.809  0.00  0.00    +0.004 C 
ATOM      6  C   UNL     1       0.737   7.038  -7.885  0.00  0.00    +0.000 C 
ATOM      7  C   UNL     1       0.095   6.763  -5.613  0.00  0.00    +0.019 C 
ATOM      8  C   UNL     1       0.036   5.491  -4.615  0.00  0.00    -0.042 C 
ATOM      9  C   UNL     1      -0.646   5.870  -3.542  0.00  0.00    +0.029 C 
ATOM     10  C   UNL     1      -1.709   6.844  -3.832  0.00  0.00    +0.173 C 
ATOM     11  C   UNL     1      -2.334   6.874  -5.192  0.00  0.00    +0.069 C 
ATOM     12  O   UNL     1      -1.983   7.806  -3.056  0.00  0.00    -0.291 OA
ATOM     13  C   UNL     1       1.257   4.728  -4.659  0.00  0.00    +0.022 C 
ATOM     14  C   UNL     1      -1.379   6.393  -6.258  0.00  0.00    +0.012 C 
ATOM     15  C   UNL     1       2.503   5.376  -4.994  0.00  0.00    +0.004 C 
ATOM     16  C   UNL     1       2.360   4.129  -7.244  0.00  0.00    +0.004 C 
ATOM     17  C   UNL     1       2.066   7.183  -8.513  0.00  0.00    +0.003 C 
ATOM     18  C   UNL     1       2.790   3.610  -8.591  0.00  0.00    +0.043 C 
ATOM     19  O   UNL     1       3.368   4.723 -10.545  0.00  0.00    -0.212 OA
ENDROOT
BRANCH   1  21
ATOM     20  C   UNL     1       0.146   4.779 -10.453  0.00  0.00    -0.012 C 
ATOM     21  C   UNL     1       1.138   4.844  -9.937  0.00  0.00    -0.049 C 
ENDBRANCH   1  21
BRANCH   2  22
ATOM     22  C   UNL     1       4.255   6.520  -9.144  0.00  0.00    +0.003 C 
ATOM     23  C   UNL     1       5.395   5.861  -8.426  0.00  0.00    +0.000 C 
ENDBRANCH   2  22
TORSDOF 2
ENDMDL
MODEL 6
REMARK VINA RESULT:      -7.3      2.392      6.470
REMARK  Name = 
REMARK  2 active torsions:
REMARK  status: ('A' for Active; 'I' for Inactive)
REMARK    1  A    between atoms: C_2  and  C_3
REMARK    2  A    between atoms: C_21  and  C_22
REMARK                            x       y       z     vdW  Elec       q    Type
REMARK                         _______ _______ _______ _____ _____    ______ ____
ROOT
ATOM      1  C   UNL     1       1.861   5.094  -5.070  0.00  0.00    +0.180 C 
ATOM      2  C   UNL     1       1.724   6.371  -5.759  0.00  0.00    +0.037 C 
ATOM      3  C   UNL     1       0.863   6.026  -7.109  0.00  0.00    +0.003 C 
ATOM      4  C   UNL     1       1.942   6.771  -8.221  0.00  0.00    +0.001 C 
ATOM      5  C   UNL     1       3.263   5.761  -7.906  0.00  0.00    +0.004 C 
ATOM      6  C   UNL     1       3.930   6.789  -6.850  0.00  0.00    +0.000 C 
ATOM      7  C   UNL     1       4.100   6.501  -9.203  0.00  0.00    +0.019 C 
ATOM      8  C   UNL     1       3.635   5.335 -10.222  0.00  0.00    -0.042 C 
ATOM      9  C   UNL     1       4.219   5.580 -11.388  0.00  0.00    +0.029 C 
ATOM     10  C   UNL     1       5.548   6.196 -11.263  0.00  0.00    +0.173 C 
ATOM     11  C   UNL     1       6.362   5.957 -10.029  0.00  0.00    +0.069 C 
ATOM     12  O   UNL     1       5.961   7.093 -12.054  0.00  0.00    -0.291 OA
ATOM     13  C   UNL     1       2.269   4.942  -9.987  0.00  0.00    +0.022 C 
ATOM     14  C   UNL     1       5.489   5.691  -8.826  0.00  0.00    +0.012 C 
ATOM     15  C   UNL     1       1.330   5.887  -9.431  0.00  0.00    +0.004 C 
ATOM     16  C   UNL     1       1.462   4.500  -7.264  0.00  0.00    +0.004 C 
ATOM     17  C   UNL     1       2.815   7.256  -6.002  0.00  0.00    +0.003 C 
ATOM     18  C   UNL     1       1.118   4.031  -5.875  0.00  0.00    +0.043 C 
ATOM     19  O   UNL     1       1.199   5.125  -3.828  0.00  0.00    -0.212 OA
ENDROOT
BRANCH   1  21
ATOM     20  C   UNL     1       4.266   4.360  -4.456  0.00  0.00    -0.012 C 
ATOM     21  C   UNL     1       3.245   4.660  -4.805  0.00  0.00    -0.049 C 
ENDBRANCH   1  21
BRANCH   2  22
ATOM     22  C   UNL     1       0.656   7.190  -5.021  0.00  0.00    +0.003 C 
ATOM     23  C   UNL     1      -0.704   7.030  -5.634  0.00  0.00    +0.000 C 
ENDBRANCH   2  22
TORSDOF 2
ENDMDL
MODEL 7
REMARK VINA RESULT:      -7.2      2.142      2.935
REMARK  Name = 
REMARK  2 active torsions:
REMARK  status: ('A' for Active; 'I' for Inactive)
REMARK    1  A    between atoms: C_2  and  C_3
REMARK    2  A    between atoms: C_21  and  C_22
REMARK                            x       y       z     vdW  Elec       q    Type
REMARK                         _______ _______ _______ _____ _____    ______ ____
ROOT
ATOM      1  C   UNL     1       3.110   5.857  -9.114  0.00  0.00    +0.180 C 
ATOM      2  C   UNL     1       2.068   5.014  -8.543  0.00  0.00    +0.037 C 
ATOM      3  C   UNL     1       1.000   6.062  -7.878  0.00  0.00    +0.003 C 
ATOM      4  C   UNL     1       0.944   5.323  -6.327  0.00  0.00    +0.001 C 
ATOM      5  C   UNL     1       2.571   5.574  -5.938  0.00  0.00    +0.004 C 
ATOM      6  C   UNL     1       3.024   4.100  -6.425  0.00  0.00    +0.000 C 
ATOM      7  C   UNL     1       2.254   4.991  -4.361  0.00  0.00    +0.019 C 
ATOM      8  C   UNL     1       2.037   6.494  -3.804  0.00  0.00    -0.042 C 
ATOM      9  C   UNL     1       1.836   6.400  -2.496  0.00  0.00    +0.029 C 
ATOM     10  C   UNL     1       2.576   5.298  -1.864  0.00  0.00    +0.173 C 
ATOM     11  C   UNL     1       3.847   4.809  -2.485  0.00  0.00    +0.069 C 
ATOM     12  O   UNL     1       2.088   4.595  -0.932  0.00  0.00    -0.291 OA
ATOM     13  C   UNL     1       1.317   7.308  -4.751  0.00  0.00    +0.022 C 
ATOM     14  C   UNL     1       3.860   5.025  -3.978  0.00  0.00    +0.012 C 
ATOM     15  C   UNL     1       0.392   6.697  -5.674  0.00  0.00    +0.004 C 
ATOM     16  C   UNL     1       2.138   7.192  -7.502  0.00  0.00    +0.004 C 
ATOM     17  C   UNL     1       2.334   3.885  -7.713  0.00  0.00    +0.003 C 
ATOM     18  C   UNL     1       2.729   7.316  -8.882  0.00  0.00    +0.043 C 
ATOM     19  O   UNL     1       3.149   5.720 -10.515  0.00  0.00    -0.212 OA
ENDROOT
BRANCH   1  21
ATOM     20  C   UNL     1       5.539   5.338  -8.383  0.00  0.00    -0.012 C 
ATOM     21  C   UNL     1       4.477   5.600  -8.622  0.00  0.00    -0.049 C 
ENDBRANCH   1  21
BRANCH   2  22
ATOM     22  C   UNL     1       1.190   4.508  -9.696  0.00  0.00    +0.003 C 
ATOM     23  C   UNL     1      -0.108   5.255  -9.788  0.00  0.00    +0.000 C 
ENDBRANCH   2  22
TORSDOF 2
ENDMDL
MODEL 8
REMARK VINA RESULT:      -7.1      1.531      3.647
REMARK  Name = 
REMARK  2 active torsions:
REMARK  status: ('A' for Active; 'I' for Inactive)
REMARK    1  A    between atoms: C_2  and  C_3
REMARK    2  A    between atoms: C_21  and  C_22
REMARK                            x       y       z     vdW  Elec       q    Type
REMARK                         _______ _______ _______ _____ _____    ______ ____
ROOT
ATOM      1  C   UNL     1       3.730   5.226  -5.646  0.00  0.00    +0.180 C 
ATOM      2  C   UNL     1       3.323   6.526  -5.127  0.00  0.00    +0.037 C 
ATOM      3  C   UNL     1       3.332   6.347  -3.499  0.00  0.00    +0.003 C 
ATOM      4  C   UNL     1       1.744   6.950  -3.230  0.00  0.00    +0.001 C 
ATOM      5  C   UNL     1       0.935   5.748  -4.105  0.00  0.00    +0.004 C 
ATOM      6  C   UNL     1       0.850   6.639  -5.452  0.00  0.00    +0.000 C 
ATOM      7  C   UNL     1      -0.553   6.387  -3.551  0.00  0.00    +0.019 C 
ATOM      8  C   UNL     1      -0.599   5.328  -2.329  0.00  0.00    -0.042 C 
ATOM      9  C   UNL     1      -1.751   5.512  -1.697  0.00  0.00    +0.029 C 
ATOM     10  C   UNL     1      -2.851   5.921  -2.583  0.00  0.00    +0.173 C 
ATOM     11  C   UNL     1      -2.819   5.533  -4.029  0.00  0.00    +0.069 C 
ATOM     12  O   UNL     1      -3.727   6.766  -2.238  0.00  0.00    -0.291 OA
ATOM     13  C   UNL     1       0.705   5.137  -1.747  0.00  0.00    +0.022 C 
ATOM     14  C   UNL     1      -1.406   5.370  -4.534  0.00  0.00    +0.012 C 
ATOM     15  C   UNL     1       1.683   6.197  -1.799  0.00  0.00    +0.004 C 
ATOM     16  C   UNL     1       2.919   4.753  -3.537  0.00  0.00    +0.004 C 
ATOM     17  C   UNL     1       2.188   7.245  -5.605  0.00  0.00    +0.003 C 
ATOM     18  C   UNL     1       4.020   4.306  -4.464  0.00  0.00    +0.043 C 
ATOM     19  O   UNL     1       4.958   5.325  -6.327  0.00  0.00    -0.212 OA
ENDROOT
BRANCH   1  21
ATOM     20  C   UNL     1       2.177   4.026  -7.334  0.00  0.00    -0.012 C 
ATOM     21  C   UNL     1       2.778   4.585  -6.572  0.00  0.00    -0.049 C 
ENDBRANCH   1  21
BRANCH   2  22
ATOM     22  C   UNL     1       4.522   7.476  -5.249  0.00  0.00    +0.003 C 
ATOM     23  C   UNL     1       5.127   7.799  -3.914  0.00  0.00    +0.000 C 
ENDBRANCH   2  22
TORSDOF 2
ENDMDL
MODEL 9
REMARK VINA RESULT:      -6.9      3.421      7.819
REMARK  Name = 
REMARK  2 active torsions:
REMARK  status: ('A' for Active; 'I' for Inactive)
REMARK    1  A    between atoms: C_2  and  C_3
REMARK    2  A    between atoms: C_21  and  C_22
REMARK                            x       y       z     vdW  Elec       q    Type
REMARK                         _______ _______ _______ _____ _____    ______ ____
ROOT
ATOM      1  C   UNL     1       1.246   6.156  -8.064  0.00  0.00    +0.180 C 
ATOM      2  C   UNL     1       2.106   4.980  -8.054  0.00  0.00    +0.037 C 
ATOM      3  C   UNL     1       3.563   5.532  -7.547  0.00  0.00    +0.003 C 
ATOM      4  C   UNL     1       4.483   4.861  -8.836  0.00  0.00    +0.001 C 
ATOM      5  C   UNL     1       3.744   5.744 -10.075  0.00  0.00    +0.004 C 
ATOM      6  C   UNL     1       2.704   4.561 -10.442  0.00  0.00    +0.000 C 
ATOM      7  C   UNL     1       4.896   5.114 -11.172  0.00  0.00    +0.019 C 
ATOM      8  C   UNL     1       5.837   6.419 -10.997  0.00  0.00    -0.042 C 
ATOM      9  C   UNL     1       6.858   6.278 -11.833  0.00  0.00    +0.029 C 
ATOM     10  C   UNL     1       6.510   5.572 -13.075  0.00  0.00    +0.173 C 
ATOM     11  C   UNL     1       5.102   5.615 -13.580  0.00  0.00    +0.069 C 
ATOM     12  O   UNL     1       7.294   4.752 -13.635  0.00  0.00    -0.291 OA
ATOM     13  C   UNL     1       5.874   6.862  -9.627  0.00  0.00    +0.022 C 
ATOM     14  C   UNL     1       4.109   5.789 -12.457  0.00  0.00    +0.012 C 
ATOM     15  C   UNL     1       5.677   5.916  -8.554  0.00  0.00    +0.004 C 
ATOM     16  C   UNL     1       3.378   7.027  -8.213  0.00  0.00    +0.004 C 
ATOM     17  C   UNL     1       2.204   4.065  -9.144  0.00  0.00    +0.003 C 
ATOM     18  C   UNL     1       2.056   7.349  -7.565  0.00  0.00    +0.043 C 
ATOM     19  O   UNL     1       0.205   6.018  -7.126  0.00  0.00    -0.212 OA
ENDROOT
BRANCH   1  21
ATOM     20  C   UNL     1       0.095   6.843 -10.278  0.00  0.00    -0.012 C 
ATOM     21  C   UNL     1       0.615   6.471  -9.359  0.00  0.00    -0.049 C 
ENDBRANCH   1  21
BRANCH   2  22
ATOM     22  C   UNL     1       1.747   4.145  -6.817  0.00  0.00    +0.003 C 
ATOM     23  C   UNL     1       2.747   4.313  -5.711  0.00  0.00    +0.000 C 
ENDBRANCH   2  22
TORSDOF 2
ENDMDL
