MODEL 1
REMARK VINA RESULT:      -6.9      0.000      0.000
REMARK  Name = 
REMARK  0 active torsions:
REMARK  status: ('A' for Active; 'I' for Inactive)
REMARK                            x       y       z     vdW  Elec       q    Type
REMARK                         _______ _______ _______ _____ _____    ______ ____
ROOT
ATOM      1  O   UNL     1      -2.798   4.653  -2.599  0.00  0.00    -0.250 OA
ATOM      2  C   UNL     1      -1.838   5.473  -2.555  0.00  0.00    +0.356 C 
ATOM      3  N   UNL     1      -0.503   5.058  -2.243  0.00  0.00    -0.001 NA
ATOM      4  C   UNL     1       0.326   5.831  -2.860  0.00  0.00    +0.406 C 
ATOM      5  N   UNL     1      -0.368   6.592  -3.857  0.00  0.00    -0.183 N 
ATOM      6  C   UNL     1       0.234   6.840  -5.139  0.00  0.00    +0.198 C 
ATOM      7  C   UNL     1       1.704   6.822  -5.073  0.00  0.00    +0.058 A 
ATOM      8  C   UNL     1       2.298   6.853  -3.819  0.00  0.00    +0.148 A 
ATOM      9  C   UNL     1       3.659   7.141  -3.807  0.00  0.00    +0.035 A 
ATOM     10  C   UNL     1       4.388   7.096  -4.989  0.00  0.00    +0.015 A 
ATOM     11  C   UNL     1       3.843   6.592  -6.160  0.00  0.00    +0.068 A 
ATOM     12 CL   UNL     1       4.741   5.541  -7.246  0.00  0.00    -0.081 Cl
ATOM     13  C   UNL     1       2.458   6.669  -6.230  0.00  0.00    +0.070 A 
ATOM     14 CL   UNL     1       1.713   6.354  -7.786  0.00  0.00    -0.081 Cl
ATOM     15  N   UNL     1       1.710   6.172  -2.704  0.00  0.00    -0.042 NA
ATOM     16  C   UNL     1      -1.760   6.689  -3.427  0.00  0.00    +0.274 C 
ENDROOT
TORSDOF 0
ENDMDL
MODEL 2
REMARK VINA RESULT:      -6.9      7.297      9.192
REMARK  Name = 
REMARK  0 active torsions:
REMARK  status: ('A' for Active; 'I' for Inactive)
REMARK                            x       y       z     vdW  Elec       q    Type
REMARK                         _______ _______ _______ _____ _____    ______ ____
ROOT
ATOM      1  O   UNL     1       7.741   4.630 -12.755  0.00  0.00    -0.250 OA
ATOM      2  C   UNL     1       6.704   5.325 -12.944  0.00  0.00    +0.356 C 
ATOM      3  N   UNL     1       5.434   4.728 -13.234  0.00  0.00    -0.001 NA
ATOM      4  C   UNL     1       4.502   5.483 -12.758  0.00  0.00    +0.406 C 
ATOM      5  N   UNL     1       5.067   6.445 -11.859  0.00  0.00    -0.183 N 
ATOM      6  C   UNL     1       4.386   6.801 -10.644  0.00  0.00    +0.198 C 
ATOM      7  C   UNL     1       2.930   6.613 -10.751  0.00  0.00    +0.058 A 
ATOM      8  C   UNL     1       2.393   6.405 -12.014  0.00  0.00    +0.148 A 
ATOM      9  C   UNL     1       1.012   6.537 -12.107  0.00  0.00    +0.035 A 
ATOM     10  C   UNL     1       0.238   6.577 -10.953  0.00  0.00    +0.015 A 
ATOM     11  C   UNL     1       0.780   6.303  -9.707  0.00  0.00    +0.068 A 
ATOM     12 CL   UNL     1      -0.051   5.319  -8.509  0.00  0.00    -0.081 Cl
ATOM     13  C   UNL     1       2.144   6.540  -9.606  0.00  0.00    +0.070 A 
ATOM     14 CL   UNL     1       2.848   6.526  -8.000  0.00  0.00    -0.081 Cl
ATOM     15  N   UNL     1       3.099   5.645 -13.002  0.00  0.00    -0.042 NA
ATOM     16  C   UNL     1       6.459   6.634 -12.257  0.00  0.00    +0.274 C 
ENDROOT
TORSDOF 0
ENDMDL
MODEL 3
REMARK VINA RESULT:      -6.6      6.378      6.873
REMARK  Name = 
REMARK  0 active torsions:
REMARK  status: ('A' for Active; 'I' for Inactive)
REMARK                            x       y       z     vdW  Elec       q    Type
REMARK                         _______ _______ _______ _____ _____    ______ ____
ROOT
ATOM      1  O   UNL     1      -0.145   4.824 -10.848  0.00  0.00    -0.250 OA
ATOM      2  C   UNL     1       0.812   5.167 -10.099  0.00  0.00    +0.356 C 
ATOM      3  N   UNL     1       1.856   4.254  -9.739  0.00  0.00    -0.001 NA
ATOM      4  C   UNL     1       2.948   4.920  -9.567  0.00  0.00    +0.406 C 
ATOM      5  N   UNL     1       2.800   6.243 -10.099  0.00  0.00    -0.183 N 
ATOM      6  C   UNL     1       3.882   6.875 -10.804  0.00  0.00    +0.198 C 
ATOM      7  C   UNL     1       5.194   6.362 -10.377  0.00  0.00    +0.058 A 
ATOM      8  C   UNL     1       5.246   5.593  -9.223  0.00  0.00    +0.148 A 
ATOM      9  C   UNL     1       6.517   5.390  -8.696  0.00  0.00    +0.035 A 
ATOM     10  C   UNL     1       7.641   5.694  -9.454  0.00  0.00    +0.015 A 
ATOM     11  C   UNL     1       7.543   6.022 -10.797  0.00  0.00    +0.068 A 
ATOM     12 CL   UNL     1       8.660   5.404 -12.006  0.00  0.00    -0.081 Cl
ATOM     13  C   UNL     1       6.318   6.558 -11.172  0.00  0.00    +0.070 A 
ATOM     14 CL   UNL     1       6.211   7.289 -12.762  0.00  0.00    -0.081 Cl
ATOM     15  N   UNL     1       4.189   4.685  -8.891  0.00  0.00    -0.042 NA
ATOM     16  C   UNL     1       1.374   6.555 -10.073  0.00  0.00    +0.274 C 
ENDROOT
TORSDOF 0
ENDMDL
MODEL 4
REMARK VINA RESULT:      -6.6      3.655      5.524
REMARK  Name = 
REMARK  0 active torsions:
REMARK  status: ('A' for Active; 'I' for Inactive)
REMARK                            x       y       z     vdW  Elec       q    Type
REMARK                         _______ _______ _______ _____ _____    ______ ____
ROOT
ATOM      1  O   UNL     1       5.201   4.820  -4.034  0.00  0.00    -0.250 OA
ATOM      2  C   UNL     1       4.306   5.140  -4.866  0.00  0.00    +0.356 C 
ATOM      3  N   UNL     1       3.313   4.205  -5.306  0.00  0.00    -0.001 NA
ATOM      4  C   UNL     1       2.229   4.849  -5.576  0.00  0.00    +0.406 C 
ATOM      5  N   UNL     1       2.306   6.177  -5.044  0.00  0.00    -0.183 N 
ATOM      6  C   UNL     1       1.156   6.793  -4.439  0.00  0.00    +0.198 C 
ATOM      7  C   UNL     1      -0.105   6.252  -4.973  0.00  0.00    +0.058 A 
ATOM      8  C   UNL     1      -0.044   5.475  -6.122  0.00  0.00    +0.148 A 
ATOM      9  C   UNL     1      -1.261   5.245  -6.755  0.00  0.00    +0.035 A 
ATOM     10  C   UNL     1      -2.451   5.532  -6.098  0.00  0.00    +0.015 A 
ATOM     11  C   UNL     1      -2.475   5.870  -4.754  0.00  0.00    +0.068 A 
ATOM     12 CL   UNL     1      -3.680   5.238  -3.641  0.00  0.00    -0.081 Cl
ATOM     13  C   UNL     1      -1.297   6.431  -4.280  0.00  0.00    +0.070 A 
ATOM     14 CL   UNL     1      -1.341   7.174  -2.692  0.00  0.00    -0.081 Cl
ATOM     15  N   UNL     1       1.054   4.586  -6.356  0.00  0.00    -0.042 NA
ATOM     16  C   UNL     1       3.723   6.517  -4.950  0.00  0.00    +0.274 C 
ENDROOT
TORSDOF 0
ENDMDL
MODEL 5
REMARK VINA RESULT:      -6.6      4.766      6.371
REMARK  Name = 
REMARK  0 active torsions:
REMARK  status: ('A' for Active; 'I' for Inactive)
REMARK                            x       y       z     vdW  Elec       q    Type
REMARK                         _______ _______ _______ _____ _____    ______ ____
ROOT
ATOM      1  O   UNL     1       3.652   7.399  -4.539  0.00  0.00    -0.250 OA
ATOM      2  C   UNL     1       3.293   6.775  -5.576  0.00  0.00    +0.356 C 
ATOM      3  N   UNL     1       2.872   7.459  -6.763  0.00  0.00    -0.001 NA
ATOM      4  C   UNL     1       3.182   6.739  -7.788  0.00  0.00    +0.406 C 
ATOM      5  N   UNL     1       4.096   5.706  -7.399  0.00  0.00    -0.183 N 
ATOM      6  C   UNL     1       5.191   5.337  -8.253  0.00  0.00    +0.198 C 
ATOM      7  C   UNL     1       4.906   5.614  -9.670  0.00  0.00    +0.058 A 
ATOM      8  C   UNL     1       3.596   5.910 -10.023  0.00  0.00    +0.148 A 
ATOM      9  C   UNL     1       3.317   5.863 -11.384  0.00  0.00    +0.035 A 
ATOM     10  C   UNL     1       4.357   5.817 -12.306  0.00  0.00    +0.015 A 
ATOM     11  C   UNL     1       5.675   6.003 -11.921  0.00  0.00    +0.068 A 
ATOM     12 CL   UNL     1       6.804   6.979 -12.851  0.00  0.00    -0.081 Cl
ATOM     13  C   UNL     1       5.940   5.682 -10.596  0.00  0.00    +0.070 A 
ATOM     14 CL   UNL     1       7.623   5.583 -10.113  0.00  0.00    -0.081 Cl
ATOM     15  N   UNL     1       2.749   6.670  -9.153  0.00  0.00    -0.042 NA
ATOM     16  C   UNL     1       3.874   5.454  -5.978  0.00  0.00    +0.274 C 
ENDROOT
TORSDOF 0
ENDMDL
MODEL 6
REMARK VINA RESULT:      -6.5      2.155      3.364
REMARK  Name = 
REMARK  0 active torsions:
REMARK  status: ('A' for Active; 'I' for Inactive)
REMARK                            x       y       z     vdW  Elec       q    Type
REMARK                         _______ _______ _______ _____ _____    ______ ____
ROOT
ATOM      1  O   UNL     1      -1.625   8.307  -0.428  0.00  0.00    -0.250 OA
ATOM      2  C   UNL     1      -1.708   7.395  -1.298  0.00  0.00    +0.356 C 
ATOM      3  N   UNL     1      -2.293   7.629  -2.585  0.00  0.00    -0.001 NA
ATOM      4  C   UNL     1      -1.716   6.862  -3.448  0.00  0.00    +0.406 C 
ATOM      5  N   UNL     1      -0.519   6.312  -2.885  0.00  0.00    -0.183 N 
ATOM      6  C   UNL     1       0.669   6.172  -3.683  0.00  0.00    +0.198 C 
ATOM      7  C   UNL     1       0.359   6.032  -5.116  0.00  0.00    +0.058 A 
ATOM      8  C   UNL     1      -0.958   5.779  -5.474  0.00  0.00    +0.148 A 
ATOM      9  C   UNL     1      -1.152   5.356  -6.784  0.00  0.00    +0.035 A 
ATOM     10  C   UNL     1      -0.125   5.479  -7.713  0.00  0.00    +0.015 A 
ATOM     11  C   UNL     1       1.033   6.183  -7.425  0.00  0.00    +0.068 A 
ATOM     12 CL   UNL     1       1.793   7.270  -8.579  0.00  0.00    -0.081 Cl
ATOM     13  C   UNL     1       1.342   6.256  -6.073  0.00  0.00    +0.070 A 
ATOM     14 CL   UNL     1       2.937   6.844  -5.642  0.00  0.00    -0.081 Cl
ATOM     15  N   UNL     1      -2.047   6.366  -4.751  0.00  0.00    -0.042 NA
ATOM     16  C   UNL     1      -0.694   6.301  -1.436  0.00  0.00    +0.274 C 
ENDROOT
TORSDOF 0
ENDMDL
MODEL 7
REMARK VINA RESULT:      -6.5      4.288      5.653
REMARK  Name = 
REMARK  0 active torsions:
REMARK  status: ('A' for Active; 'I' for Inactive)
REMARK                            x       y       z     vdW  Elec       q    Type
REMARK                         _______ _______ _______ _____ _____    ______ ____
ROOT
ATOM      1  O   UNL     1       1.070   4.923  -4.750  0.00  0.00    -0.250 OA
ATOM      2  C   UNL     1       1.119   4.670  -5.987  0.00  0.00    +0.356 C 
ATOM      3  N   UNL     1       0.874   5.678  -6.975  0.00  0.00    -0.001 NA
ATOM      4  C   UNL     1       1.572   5.407  -8.026  0.00  0.00    +0.406 C 
ATOM      5  N   UNL     1       2.556   4.413  -7.713  0.00  0.00    -0.183 N 
ATOM      6  C   UNL     1       3.881   4.495  -8.263  0.00  0.00    +0.198 C 
ATOM      7  C   UNL     1       3.906   5.223  -9.542  0.00  0.00    +0.058 A 
ATOM      8  C   UNL     1       2.693   5.475 -10.169  0.00  0.00    +0.148 A 
ATOM      9  C   UNL     1       2.778   5.882 -11.496  0.00  0.00    +0.035 A 
ATOM     10  C   UNL     1       4.000   6.282 -12.023  0.00  0.00    +0.015 A 
ATOM     11  C   UNL     1       5.112   6.467 -11.218  0.00  0.00    +0.068 A 
ATOM     12 CL   UNL     1       6.207   7.829 -11.412  0.00  0.00    -0.081 Cl
ATOM     13  C   UNL     1       5.100   5.729 -10.041  0.00  0.00    +0.070 A 
ATOM     14 CL   UNL     1       6.592   5.655  -9.122  0.00  0.00    -0.081 Cl
ATOM     15  N   UNL     1       1.517   5.778  -9.410  0.00  0.00    -0.042 NA
ATOM     16  C   UNL     1       2.045   3.651  -6.577  0.00  0.00    +0.274 C 
ENDROOT
TORSDOF 0
ENDMDL
MODEL 8
REMARK VINA RESULT:      -6.5      1.255      1.460
REMARK  Name = 
REMARK  0 active torsions:
REMARK  status: ('A' for Active; 'I' for Inactive)
REMARK                            x       y       z     vdW  Elec       q    Type
REMARK                         _______ _______ _______ _____ _____    ______ ____
ROOT
ATOM      1  O   UNL     1      -2.932   4.578  -2.816  0.00  0.00    -0.250 OA
ATOM      2  C   UNL     1      -2.011   5.397  -3.092  0.00  0.00    +0.356 C 
ATOM      3  N   UNL     1      -0.628   5.066  -2.919  0.00  0.00    -0.001 NA
ATOM      4  C   UNL     1       0.064   5.702  -3.803  0.00  0.00    +0.406 C 
ATOM      5  N   UNL     1      -0.805   6.235  -4.810  0.00  0.00    -0.183 N 
ATOM      6  C   UNL     1      -0.419   6.218  -6.195  0.00  0.00    +0.198 C 
ATOM      7  C   UNL     1       1.043   6.225  -6.362  0.00  0.00    +0.058 A 
ATOM      8  C   UNL     1       1.822   6.519  -5.251  0.00  0.00    +0.148 A 
ATOM      9  C   UNL     1       3.155   6.813  -5.515  0.00  0.00    +0.035 A 
ATOM     10  C   UNL     1       3.695   6.532  -6.764  0.00  0.00    +0.015 A 
ATOM     11  C   UNL     1       2.997   5.794  -7.706  0.00  0.00    +0.068 A 
ATOM     12 CL   UNL     1       3.758   4.547  -8.686  0.00  0.00    -0.081 Cl
ATOM     13  C   UNL     1       1.616   5.844  -7.570  0.00  0.00    +0.070 A 
ATOM     14 CL   UNL     1       0.653   5.208  -8.890  0.00  0.00    -0.081 Cl
ATOM     15  N   UNL     1       1.441   6.078  -3.942  0.00  0.00    -0.042 NA
ATOM     16  C   UNL     1      -2.117   6.407  -4.193  0.00  0.00    +0.274 C 
ENDROOT
TORSDOF 0
ENDMDL
MODEL 9
REMARK VINA RESULT:      -6.4      7.057      8.804
REMARK  Name = 
REMARK  0 active torsions:
REMARK  status: ('A' for Active; 'I' for Inactive)
REMARK                            x       y       z     vdW  Elec       q    Type
REMARK                         _______ _______ _______ _____ _____    ______ ____
ROOT
ATOM      1  O   UNL     1       6.250   7.712 -14.797  0.00  0.00    -0.250 OA
ATOM      2  C   UNL     1       6.299   6.875 -13.853  0.00  0.00    +0.356 C 
ATOM      3  N   UNL     1       6.806   7.222 -12.559  0.00  0.00    -0.001 NA
ATOM      4  C   UNL     1       6.195   6.514 -11.671  0.00  0.00    +0.406 C 
ATOM      5  N   UNL     1       5.040   5.894 -12.252  0.00  0.00    -0.183 N 
ATOM      6  C   UNL     1       3.812   5.792 -11.512  0.00  0.00    +0.198 C 
ATOM      7  C   UNL     1       4.043   5.773 -10.058  0.00  0.00    +0.058 A 
ATOM      8  C   UNL     1       5.341   5.578  -9.609  0.00  0.00    +0.148 A 
ATOM      9  C   UNL     1       5.468   5.264  -8.260  0.00  0.00    +0.035 A 
ATOM     10  C   UNL     1       4.389   5.438  -7.402  0.00  0.00    +0.015 A 
ATOM     11  C   UNL     1       3.236   6.091  -7.809  0.00  0.00    +0.068 A 
ATOM     12 CL   UNL     1       2.394   7.250  -6.789  0.00  0.00    -0.081 Cl
ATOM     13  C   UNL     1       3.004   6.051  -9.177  0.00  0.00    +0.070 A 
ATOM     14 CL   UNL     1       1.426   6.568  -9.741  0.00  0.00    -0.081 Cl
ATOM     15  N   UNL     1       6.459   6.129 -10.315  0.00  0.00    -0.042 NA
ATOM     16  C   UNL     1       5.298   5.773 -13.684  0.00  0.00    +0.274 C 
ENDROOT
TORSDOF 0
ENDMDL
