MODEL 1
REMARK VINA RESULT:      -9.0      0.000      0.000
REMARK  Name = 
REMARK  7 active torsions:
REMARK  status: ('A' for Active; 'I' for Inactive)
REMARK    1  A    between atoms: N_7  and  C_8
REMARK    2  A    between atoms: C_11  and  O_12
REMARK    3  A    between atoms: O_12  and  C_13
REMARK    4  A    between atoms: C_13  and  C_14
REMARK    5  A    between atoms: C_17  and  C_18
REMARK    6  A    between atoms: C_17  and  C_24
REMARK    7  A    between atoms: C_18  and  N_19
REMARK                            x       y       z     vdW  Elec       q    Type
REMARK                         _______ _______ _______ _____ _____    ______ ____
ROOT
ATOM      1  C   UNL     1       1.857   6.866  -9.156  0.00  0.00    +0.191 C 
ATOM      2  O   UNL     1       2.778   7.051 -10.378  0.00  0.00    -0.325 OA
ATOM      3  C   UNL     1       3.610   6.022 -10.339  0.00  0.00    +0.230 C 
ATOM      4  O   UNL     1       3.416   5.191  -9.263  0.00  0.00    -0.327 OA
ATOM      5  C   UNL     1       2.052   5.198  -9.188  0.00  0.00    +0.178 C 
ENDROOT
BRANCH   3   6
ATOM      6  C   UNL     1       5.002   6.555 -10.170  0.00  0.00    +0.041 A 
ATOM      7  C   UNL     1       5.978   5.801  -9.530  0.00  0.00    +0.059 A 
ATOM      8 CL   UNL     1       5.389   4.610  -8.402  0.00  0.00    -0.082 Cl
ATOM      9  C   UNL     1       7.311   5.885  -9.922  0.00  0.00    +0.023 A 
ATOM     10  C   UNL     1       7.681   6.641 -11.028  0.00  0.00    +0.058 A 
ATOM     11 CL   UNL     1       8.820   6.040 -12.231  0.00  0.00    -0.082 Cl
ATOM     12  C   UNL     1       6.810   7.687 -11.311  0.00  0.00    +0.011 A 
ATOM     13  C   UNL     1       5.470   7.608 -10.948  0.00  0.00    +0.002 A 
ENDBRANCH   3   6
BRANCH   1  14
ATOM     14  C   UNL     1       3.129   7.080  -8.072  0.00  0.00    +0.237 C 
BRANCH  14  15
ATOM     15  O   UNL     1       2.508   7.187  -6.833  0.00  0.00    -0.473 OA
BRANCH  15  19
ATOM     16  C   UNL     1       3.856   6.774  -3.054  0.00  0.00    +0.048 A 
ATOM     17  C   UNL     1       4.606   6.195  -4.063  0.00  0.00    +0.018 A 
ATOM     18  C   UNL     1       4.086   6.098  -5.330  0.00  0.00    +0.038 A 
ATOM     19  C   UNL     1       2.811   6.539  -5.666  0.00  0.00    +0.139 A 
ATOM     20  C   UNL     1       1.980   6.732  -4.568  0.00  0.00    +0.038 A 
ATOM     21  C   UNL     1       2.484   6.786  -3.274  0.00  0.00    +0.018 A 
BRANCH  16  27
ATOM     22  C   UNL     1       1.136   8.235   1.502  0.00  0.00    +0.095 C 
ATOM     23  C   UNL     1       1.586   7.467   0.508  0.00  0.00    +0.226 C 
ATOM     24  N   UNL     1       2.919   7.668   0.025  0.00  0.00    -0.276 N 
ATOM     25  C   UNL     1       3.313   8.998  -0.392  0.00  0.00    +0.115 C 
ATOM     26  C   UNL     1       3.755   8.893  -1.836  0.00  0.00    +0.112 C 
ATOM     27  N   UNL     1       4.453   7.633  -2.075  0.00  0.00    -0.304 N 
ATOM     28  C   UNL     1       5.015   6.965  -0.906  0.00  0.00    +0.112 C 
ATOM     29  C   UNL     1       3.850   6.571  -0.020  0.00  0.00    +0.115 C 
ATOM     30  O   UNL     1       0.782   6.900  -0.286  0.00  0.00    -0.275 OA
ENDBRANCH  16  27
ENDBRANCH  15  19
ENDBRANCH  14  15
ENDBRANCH   1  14
BRANCH   3  31
ATOM     31  C   UNL     1       3.619   5.079 -11.522  0.00  0.00    +0.168 C 
BRANCH  31  32
ATOM     32  N   UNL     1       2.881   5.547 -12.655  0.00  0.00    -0.302 N 
ATOM     33  C   UNL     1       3.543   5.730 -13.827  0.00  0.00    +0.179 A 
ATOM     34  N   UNL     1       2.664   6.102 -14.754  0.00  0.00    -0.222 NA
ATOM     35  C   UNL     1       1.428   5.823 -14.323  0.00  0.00    +0.119 A 
ATOM     36  C   UNL     1       1.597   5.420 -13.005  0.00  0.00    +0.098 A 
ENDBRANCH  31  32
ENDBRANCH   3  31
TORSDOF 7
ENDMDL
MODEL 2
REMARK VINA RESULT:      -8.8      1.585      2.000
REMARK  Name = 
REMARK  7 active torsions:
REMARK  status: ('A' for Active; 'I' for Inactive)
REMARK    1  A    between atoms: N_7  and  C_8
REMARK    2  A    between atoms: C_11  and  O_12
REMARK    3  A    between atoms: O_12  and  C_13
REMARK    4  A    between atoms: C_13  and  C_14
REMARK    5  A    between atoms: C_17  and  C_18
REMARK    6  A    between atoms: C_17  and  C_24
REMARK    7  A    between atoms: C_18  and  N_19
REMARK                            x       y       z     vdW  Elec       q    Type
REMARK                         _______ _______ _______ _____ _____    ______ ____
ROOT
ATOM      1  C   UNL     1       1.952   6.626  -8.607  0.00  0.00    +0.191 C 
ATOM      2  O   UNL     1       2.715   6.883  -9.922  0.00  0.00    -0.325 OA
ATOM      3  C   UNL     1       3.601   5.902 -10.001  0.00  0.00    +0.230 C 
ATOM      4  O   UNL     1       3.577   5.044  -8.930  0.00  0.00    -0.327 OA
ATOM      5  C   UNL     1       2.233   4.972  -8.700  0.00  0.00    +0.178 C 
ENDROOT
BRANCH   3   6
ATOM      6  C   UNL     1       4.972   6.510  -9.980  0.00  0.00    +0.041 A 
ATOM      7  C   UNL     1       6.049   5.816  -9.442  0.00  0.00    +0.059 A 
ATOM      8 CL   UNL     1       5.645   4.606  -8.254  0.00  0.00    -0.082 Cl
ATOM      9  C   UNL     1       7.327   5.967  -9.970  0.00  0.00    +0.023 A 
ATOM     10  C   UNL     1       7.539   6.732 -11.112  0.00  0.00    +0.058 A 
ATOM     11 CL   UNL     1       8.578   6.182 -12.424  0.00  0.00    -0.082 Cl
ATOM     12  C   UNL     1       6.588   7.727 -11.307  0.00  0.00    +0.011 A 
ATOM     13  C   UNL     1       5.299   7.580 -10.806  0.00  0.00    +0.002 A 
ENDBRANCH   3   6
BRANCH   1  14
ATOM     14  C   UNL     1       3.326   6.893  -7.671  0.00  0.00    +0.237 C 
BRANCH  14  15
ATOM     15  O   UNL     1       2.936   6.545  -6.383  0.00  0.00    -0.473 OA
BRANCH  15  19
ATOM     16  C   UNL     1       3.739   6.029  -2.464  0.00  0.00    +0.048 A 
ATOM     17  C   UNL     1       3.982   7.280  -3.003  0.00  0.00    +0.018 A 
ATOM     18  C   UNL     1       3.953   7.454  -4.365  0.00  0.00    +0.038 A 
ATOM     19  C   UNL     1       3.708   6.419  -5.260  0.00  0.00    +0.139 A 
ATOM     20  C   UNL     1       3.869   5.154  -4.707  0.00  0.00    +0.038 A 
ATOM     21  C   UNL     1       3.947   4.964  -3.332  0.00  0.00    +0.018 A 
BRANCH  16  27
ATOM     22  C   UNL     1      -1.700   6.871  -2.437  0.00  0.00    +0.095 C 
ATOM     23  C   UNL     1      -0.501   6.466  -2.859  0.00  0.00    +0.226 C 
ATOM     24  N   UNL     1       0.447   5.985  -1.899  0.00  0.00    -0.276 N 
ATOM     25  C   UNL     1       0.772   6.824  -0.764  0.00  0.00    +0.115 C 
ATOM     26  C   UNL     1       2.266   7.058  -0.803  0.00  0.00    +0.112 C 
ATOM     27  N   UNL     1       2.967   5.864  -1.268  0.00  0.00    -0.304 N 
ATOM     28  C   UNL     1       2.253   4.598  -1.146  0.00  0.00    +0.112 C 
ATOM     29  C   UNL     1       1.042   4.684  -2.054  0.00  0.00    +0.115 C 
ATOM     30  O   UNL     1      -0.027   6.883  -3.954  0.00  0.00    -0.275 OA
ENDBRANCH  16  27
ENDBRANCH  15  19
ENDBRANCH  14  15
ENDBRANCH   1  14
BRANCH   3  31
ATOM     31  C   UNL     1       3.525   4.981 -11.199  0.00  0.00    +0.168 C 
BRANCH  31  32
ATOM     32  N   UNL     1       2.862   5.543 -12.335  0.00  0.00    -0.302 N 
ATOM     33  C   UNL     1       3.537   5.610 -13.512  0.00  0.00    +0.179 A 
ATOM     34  N   UNL     1       2.720   6.101 -14.439  0.00  0.00    -0.222 NA
ATOM     35  C   UNL     1       1.459   6.019 -14.001  0.00  0.00    +0.119 A 
ATOM     36  C   UNL     1       1.570   5.609 -12.678  0.00  0.00    +0.098 A 
ENDBRANCH  31  32
ENDBRANCH   3  31
TORSDOF 7
ENDMDL
MODEL 3
REMARK VINA RESULT:      -8.8      3.147     10.253
REMARK  Name = 
REMARK  7 active torsions:
REMARK  status: ('A' for Active; 'I' for Inactive)
REMARK    1  A    between atoms: N_7  and  C_8
REMARK    2  A    between atoms: C_11  and  O_12
REMARK    3  A    between atoms: O_12  and  C_13
REMARK    4  A    between atoms: C_13  and  C_14
REMARK    5  A    between atoms: C_17  and  C_18
REMARK    6  A    between atoms: C_17  and  C_24
REMARK    7  A    between atoms: C_18  and  N_19
REMARK                            x       y       z     vdW  Elec       q    Type
REMARK                         _______ _______ _______ _____ _____    ______ ____
ROOT
ATOM      1  C   UNL     1       3.390   7.034  -5.202  0.00  0.00    +0.191 C 
ATOM      2  O   UNL     1       2.248   7.320  -4.206  0.00  0.00    -0.325 OA
ATOM      3  C   UNL     1       1.534   6.206  -4.174  0.00  0.00    +0.230 C 
ATOM      4  O   UNL     1       1.996   5.225  -5.017  0.00  0.00    -0.327 OA
ATOM      5  C   UNL     1       3.343   5.387  -4.870  0.00  0.00    +0.178 C 
ENDROOT
BRANCH   3   6
ATOM      6  C   UNL     1       0.153   6.523  -4.668  0.00  0.00    +0.041 A 
ATOM      7  C   UNL     1      -0.622   5.549  -5.285  0.00  0.00    +0.059 A 
ATOM      8 CL   UNL     1       0.263   4.247  -6.034  0.00  0.00    -0.082 Cl
ATOM      9  C   UNL     1      -2.005   5.542  -5.136  0.00  0.00    +0.023 A 
ATOM     10  C   UNL     1      -2.633   6.443  -4.284  0.00  0.00    +0.058 A 
ATOM     11 CL   UNL     1      -3.913   5.946  -3.179  0.00  0.00    -0.082 Cl
ATOM     12  C   UNL     1      -1.922   7.621  -4.089  0.00  0.00    +0.011 A 
ATOM     13  C   UNL     1      -0.538   7.640  -4.210  0.00  0.00    +0.002 A 
ENDBRANCH   3   6
BRANCH   1  14
ATOM     14  C   UNL     1       2.323   6.890  -6.497  0.00  0.00    +0.237 C 
BRANCH  14  15
ATOM     15  O   UNL     1       3.100   7.180  -7.613  0.00  0.00    -0.473 OA
BRANCH  15  19
ATOM     16  C   UNL     1       5.912   5.762 -10.133  0.00  0.00    +0.048 A 
ATOM     17  C   UNL     1       4.731   6.220 -10.692  0.00  0.00    +0.018 A 
ATOM     18  C   UNL     1       3.655   6.493  -9.883  0.00  0.00    +0.038 A 
ATOM     19  C   UNL     1       3.673   6.314  -8.505  0.00  0.00    +0.139 A 
ATOM     20  C   UNL     1       4.707   5.497  -8.061  0.00  0.00    +0.038 A 
ATOM     21  C   UNL     1       5.781   5.173  -8.882  0.00  0.00    +0.018 A 
BRANCH  16  27
ATOM     22  C   UNL     1       6.875   6.470 -15.505  0.00  0.00    +0.095 C 
ATOM     23  C   UNL     1       6.231   6.498 -14.338  0.00  0.00    +0.226 C 
ATOM     24  N   UNL     1       6.974   6.755 -13.141  0.00  0.00    -0.276 N 
ATOM     25  C   UNL     1       8.129   5.930 -12.851  0.00  0.00    +0.115 C 
ATOM     26  C   UNL     1       7.883   5.288 -11.503  0.00  0.00    +0.112 C 
ATOM     27  N   UNL     1       7.188   6.208 -10.607  0.00  0.00    -0.304 N 
ATOM     28  C   UNL     1       7.282   7.628 -10.929  0.00  0.00    +0.112 C 
ATOM     29  C   UNL     1       6.588   7.827 -12.261  0.00  0.00    +0.115 C 
ATOM     30  O   UNL     1       5.127   5.898 -14.195  0.00  0.00    -0.275 OA
ENDBRANCH  16  27
ENDBRANCH  15  19
ENDBRANCH  14  15
ENDBRANCH   1  14
BRANCH   3  31
ATOM     31  C   UNL     1       1.395   5.498  -2.845  0.00  0.00    +0.168 C 
BRANCH  31  32
ATOM     32  N   UNL     1       2.074   6.138  -1.760  0.00  0.00    -0.302 N 
ATOM     33  C   UNL     1       1.340   6.576  -0.704  0.00  0.00    +0.179 A 
ATOM     34  N   UNL     1       2.170   7.076   0.207  0.00  0.00    -0.222 NA
ATOM     35  C   UNL     1       3.414   6.658  -0.056  0.00  0.00    +0.119 A 
ATOM     36  C   UNL     1       3.318   6.017  -1.285  0.00  0.00    +0.098 A 
ENDBRANCH  31  32
ENDBRANCH   3  31
TORSDOF 7
ENDMDL
MODEL 4
REMARK VINA RESULT:      -8.8      3.022      9.772
REMARK  Name = 
REMARK  7 active torsions:
REMARK  status: ('A' for Active; 'I' for Inactive)
REMARK    1  A    between atoms: N_7  and  C_8
REMARK    2  A    between atoms: C_11  and  O_12
REMARK    3  A    between atoms: O_12  and  C_13
REMARK    4  A    between atoms: C_13  and  C_14
REMARK    5  A    between atoms: C_17  and  C_18
REMARK    6  A    between atoms: C_17  and  C_24
REMARK    7  A    between atoms: C_18  and  N_19
REMARK                            x       y       z     vdW  Elec       q    Type
REMARK                         _______ _______ _______ _____ _____    ______ ____
ROOT
ATOM      1  C   UNL     1       0.363   4.849  -1.966  0.00  0.00    +0.191 C 
ATOM      2  O   UNL     1       1.751   4.914  -1.297  0.00  0.00    -0.325 OA
ATOM      3  C   UNL     1       2.041   6.204  -1.236  0.00  0.00    +0.230 C 
ATOM      4  O   UNL     1       1.083   7.017  -1.788  0.00  0.00    -0.327 OA
ATOM      5  C   UNL     1      -0.051   6.371  -1.387  0.00  0.00    +0.178 C 
ENDROOT
BRANCH   3   6
ATOM      6  C   UNL     1       3.273   6.443  -2.058  0.00  0.00    +0.041 A 
ATOM      7  C   UNL     1       4.199   5.428  -2.263  0.00  0.00    +0.059 A 
ATOM      8 CL   UNL     1       4.226   4.179  -1.047  0.00  0.00    -0.082 Cl
ATOM      9  C   UNL     1       4.906   5.341  -3.458  0.00  0.00    +0.023 A 
ATOM     10  C   UNL     1       4.628   6.204  -4.513  0.00  0.00    +0.058 A 
ATOM     11 CL   UNL     1       4.492   5.634  -6.175  0.00  0.00    -0.082 Cl
ATOM     12  C   UNL     1       4.086   7.421  -4.116  0.00  0.00    +0.011 A 
ATOM     13  C   UNL     1       3.356   7.518  -2.937  0.00  0.00    +0.002 A 
ENDBRANCH   3   6
BRANCH   1  14
ATOM     14  C   UNL     1       0.951   5.468  -3.417  0.00  0.00    +0.237 C 
BRANCH  14  15
ATOM     15  O   UNL     1      -0.142   5.425  -4.275  0.00  0.00    -0.473 OA
BRANCH  15  19
ATOM     16  C   UNL     1       0.329   5.663  -8.274  0.00  0.00    +0.048 A 
ATOM     17  C   UNL     1       1.023   6.574  -7.498  0.00  0.00    +0.018 A 
ATOM     18  C   UNL     1       0.728   6.697  -6.162  0.00  0.00    +0.038 A 
ATOM     19  C   UNL     1      -0.265   5.957  -5.530  0.00  0.00    +0.139 A 
ATOM     20  C   UNL     1      -1.172   5.375  -6.409  0.00  0.00    +0.038 A 
ATOM     21  C   UNL     1      -0.910   5.283  -7.771  0.00  0.00    +0.018 A 
BRANCH  16  27
ATOM     22  C   UNL     1       0.301   7.213 -13.555  0.00  0.00    +0.095 C 
ATOM     23  C   UNL     1       0.374   7.307 -12.227  0.00  0.00    +0.226 C 
ATOM     24  N   UNL     1       1.010   6.256 -11.491  0.00  0.00    -0.276 N 
ATOM     25  C   UNL     1       0.558   4.894 -11.693  0.00  0.00    +0.115 C 
ATOM     26  C   UNL     1       0.121   4.371 -10.342  0.00  0.00    +0.112 C 
ATOM     27  N   UNL     1       0.985   4.883  -9.282  0.00  0.00    -0.304 N 
ATOM     28  C   UNL     1       2.306   5.353  -9.685  0.00  0.00    +0.112 C 
ATOM     29  C   UNL     1       2.091   6.551 -10.588  0.00  0.00    +0.115 C 
ATOM     30  O   UNL     1      -0.444   8.025 -11.584  0.00  0.00    -0.275 OA
ENDBRANCH  16  27
ENDBRANCH  15  19
ENDBRANCH  14  15
ENDBRANCH   1  14
BRANCH   3  31
ATOM     31  C   UNL     1       2.277   6.808   0.131  0.00  0.00    +0.168 C 
BRANCH  31  32
ATOM     32  N   UNL     1       2.108   8.227   0.186  0.00  0.00    -0.302 N 
ATOM     33  C   UNL     1       1.057   8.728   0.886  0.00  0.00    +0.179 A 
ATOM     34  N   UNL     1       1.127  10.056   0.860  0.00  0.00    -0.222 NA
ATOM     35  C   UNL     1       2.357  10.423   0.483  0.00  0.00    +0.119 A 
ATOM     36  C   UNL     1       2.981   9.239   0.111  0.00  0.00    +0.098 A 
ENDBRANCH  31  32
ENDBRANCH   3  31
TORSDOF 7
ENDMDL
MODEL 5
REMARK VINA RESULT:      -8.7      1.172      1.765
REMARK  Name = 
REMARK  7 active torsions:
REMARK  status: ('A' for Active; 'I' for Inactive)
REMARK    1  A    between atoms: N_7  and  C_8
REMARK    2  A    between atoms: C_11  and  O_12
REMARK    3  A    between atoms: O_12  and  C_13
REMARK    4  A    between atoms: C_13  and  C_14
REMARK    5  A    between atoms: C_17  and  C_18
REMARK    6  A    between atoms: C_17  and  C_24
REMARK    7  A    between atoms: C_18  and  N_19
REMARK                            x       y       z     vdW  Elec       q    Type
REMARK                         _______ _______ _______ _____ _____    ______ ____
ROOT
ATOM      1  C   UNL     1       1.723   6.675  -9.568  0.00  0.00    +0.191 C 
ATOM      2  O   UNL     1       2.730   6.999 -10.689  0.00  0.00    -0.325 OA
ATOM      3  C   UNL     1       3.571   5.978 -10.700  0.00  0.00    +0.230 C 
ATOM      4  O   UNL     1       3.310   5.032  -9.739  0.00  0.00    -0.327 OA
ATOM      5  C   UNL     1       1.945   5.022  -9.767  0.00  0.00    +0.178 C 
ENDROOT
BRANCH   3   6
ATOM      6  C   UNL     1       4.939   6.498 -10.369  0.00  0.00    +0.041 A 
ATOM      7  C   UNL     1       5.848   5.713  -9.671  0.00  0.00    +0.059 A 
ATOM      8 CL   UNL     1       5.152   4.473  -8.663  0.00  0.00    -0.082 Cl
ATOM      9  C   UNL     1       7.213   5.810  -9.923  0.00  0.00    +0.023 A 
ATOM     10  C   UNL     1       7.690   6.616 -10.952  0.00  0.00    +0.058 A 
ATOM     11 CL   UNL     1       8.944   6.068 -12.062  0.00  0.00    -0.082 Cl
ATOM     12  C   UNL     1       6.849   7.676 -11.271  0.00  0.00    +0.011 A 
ATOM     13  C   UNL     1       5.481   7.585 -11.047  0.00  0.00    +0.002 A 
ENDBRANCH   3   6
BRANCH   1  14
ATOM     14  C   UNL     1       2.907   6.777  -8.374  0.00  0.00    +0.237 C 
BRANCH  14  15
ATOM     15  O   UNL     1       2.305   6.227  -7.248  0.00  0.00    -0.473 OA
BRANCH  15  19
ATOM     16  C   UNL     1       2.291   6.480  -3.223  0.00  0.00    +0.048 A 
ATOM     17  C   UNL     1       1.064   6.406  -3.859  0.00  0.00    +0.018 A 
ATOM     18  C   UNL     1       0.993   6.553  -5.222  0.00  0.00    +0.038 A 
ATOM     19  C   UNL     1       2.103   6.799  -6.022  0.00  0.00    +0.139 A 
ATOM     20  C   UNL     1       3.210   7.253  -5.314  0.00  0.00    +0.038 A 
ATOM     21  C   UNL     1       3.280   7.154  -3.928  0.00  0.00    +0.018 A 
BRANCH  16  27
ATOM     22  C   UNL     1       4.640   8.411   1.365  0.00  0.00    +0.095 C 
ATOM     23  C   UNL     1       3.825   8.347   0.311  0.00  0.00    +0.226 C 
ATOM     24  N   UNL     1       3.320   7.071  -0.100  0.00  0.00    -0.276 N 
ATOM     25  C   UNL     1       4.262   6.002  -0.356  0.00  0.00    +0.115 C 
ATOM     26  C   UNL     1       4.043   5.556  -1.786  0.00  0.00    +0.112 C 
ATOM     27  N   UNL     1       2.626   5.609  -2.135  0.00  0.00    -0.304 N 
ATOM     28  C   UNL     1       1.678   5.588  -1.026  0.00  0.00    +0.112 C 
ATOM     29  C   UNL     1       1.903   6.858  -0.230  0.00  0.00    +0.115 C 
ATOM     30  O   UNL     1       3.833   9.256  -0.568  0.00  0.00    -0.275 OA
ENDBRANCH  16  27
ENDBRANCH  15  19
ENDBRANCH  14  15
ENDBRANCH   1  14
BRANCH   3  31
ATOM     31  C   UNL     1       3.682   5.171 -11.974  0.00  0.00    +0.168 C 
BRANCH  31  32
ATOM     32  N   UNL     1       2.803   5.595 -13.020  0.00  0.00    -0.302 N 
ATOM     33  C   UNL     1       3.343   5.982 -14.204  0.00  0.00    +0.179 A 
ATOM     34  N   UNL     1       2.354   6.271 -15.045  0.00  0.00    -0.222 NA
ATOM     35  C   UNL     1       1.214   5.751 -14.577  0.00  0.00    +0.119 A 
ATOM     36  C   UNL     1       1.536   5.277 -13.311  0.00  0.00    +0.098 A 
ENDBRANCH  31  32
ENDBRANCH   3  31
TORSDOF 7
ENDMDL
MODEL 6
REMARK VINA RESULT:      -8.7      2.534      9.438
REMARK  Name = 
REMARK  7 active torsions:
REMARK  status: ('A' for Active; 'I' for Inactive)
REMARK    1  A    between atoms: N_7  and  C_8
REMARK    2  A    between atoms: C_11  and  O_12
REMARK    3  A    between atoms: O_12  and  C_13
REMARK    4  A    between atoms: C_13  and  C_14
REMARK    5  A    between atoms: C_17  and  C_18
REMARK    6  A    between atoms: C_17  and  C_24
REMARK    7  A    between atoms: C_18  and  N_19
REMARK                            x       y       z     vdW  Elec       q    Type
REMARK                         _______ _______ _______ _____ _____    ______ ____
ROOT
ATOM      1  C   UNL     1       0.515   4.921  -1.675  0.00  0.00    +0.191 C 
ATOM      2  O   UNL     1       1.928   5.018  -1.066  0.00  0.00    -0.325 OA
ATOM      3  C   UNL     1       2.212   6.311  -1.061  0.00  0.00    +0.230 C 
ATOM      4  O   UNL     1       1.225   7.098  -1.603  0.00  0.00    -0.327 OA
ATOM      5  C   UNL     1       0.114   6.460  -1.133  0.00  0.00    +0.178 C 
ENDROOT
BRANCH   3   6
ATOM      6  C   UNL     1       3.407   6.528  -1.941  0.00  0.00    +0.041 A 
ATOM      7  C   UNL     1       4.314   5.501  -2.174  0.00  0.00    +0.059 A 
ATOM      8 CL   UNL     1       4.385   4.268  -0.945  0.00  0.00    -0.082 Cl
ATOM      9  C   UNL     1       4.967   5.394  -3.398  0.00  0.00    +0.023 A 
ATOM     10  C   UNL     1       4.650   6.246  -4.450  0.00  0.00    +0.058 A 
ATOM     11 CL   UNL     1       4.434   5.657  -6.097  0.00  0.00    -0.082 Cl
ATOM     12  C   UNL     1       4.136   7.472  -4.044  0.00  0.00    +0.011 A 
ATOM     13  C   UNL     1       3.461   7.591  -2.836  0.00  0.00    +0.002 A 
ENDBRANCH   3   6
BRANCH   1  14
ATOM     14  C   UNL     1       1.040   5.491  -3.170  0.00  0.00    +0.237 C 
BRANCH  14  15
ATOM     15  O   UNL     1      -0.048   5.296  -4.012  0.00  0.00    -0.473 OA
BRANCH  15  19
ATOM     16  C   UNL     1       0.526   5.690  -7.985  0.00  0.00    +0.048 A 
ATOM     17  C   UNL     1      -0.781   5.655  -7.532  0.00  0.00    +0.018 A 
ATOM     18  C   UNL     1      -1.045   5.291  -6.235  0.00  0.00    +0.038 A 
ATOM     19  C   UNL     1      -0.055   4.927  -5.329  0.00  0.00    +0.139 A 
ATOM     20  C   UNL     1       1.155   4.597  -5.929  0.00  0.00    +0.038 A 
ATOM     21  C   UNL     1       1.422   4.917  -7.256  0.00  0.00    +0.018 A 
BRANCH  16  27
ATOM     22  C   UNL     1       5.447   5.375 -10.429  0.00  0.00    +0.095 C 
ATOM     23  C   UNL     1       4.262   4.990  -9.954  0.00  0.00    +0.226 C 
ATOM     24  N   UNL     1       3.154   5.894 -10.037  0.00  0.00    -0.276 N 
ATOM     25  C   UNL     1       3.303   7.226  -9.489  0.00  0.00    +0.115 C 
ATOM     26  C   UNL     1       2.219   7.395  -8.445  0.00  0.00    +0.112 C 
ATOM     27  N   UNL     1       0.989   6.726  -8.860  0.00  0.00    -0.304 N 
ATOM     28  C   UNL     1       0.837   6.463 -10.287  0.00  0.00    +0.112 C 
ATOM     29  C   UNL     1       1.930   5.486 -10.675  0.00  0.00    +0.115 C 
ATOM     30  O   UNL     1       4.181   4.083  -9.077  0.00  0.00    -0.275 OA
ENDBRANCH  16  27
ENDBRANCH  15  19
ENDBRANCH  14  15
ENDBRANCH   1  14
BRANCH   3  31
ATOM     31  C   UNL     1       2.498   6.964   0.273  0.00  0.00    +0.168 C 
BRANCH  31  32
ATOM     32  N   UNL     1       2.344   8.386   0.279  0.00  0.00    -0.302 N 
ATOM     33  C   UNL     1       1.351   8.928   1.031  0.00  0.00    +0.179 A 
ATOM     34  N   UNL     1       1.430  10.252   0.943  0.00  0.00    -0.222 NA
ATOM     35  C   UNL     1       2.632  10.589   0.461  0.00  0.00    +0.119 A 
ATOM     36  C   UNL     1       3.217   9.384   0.097  0.00  0.00    +0.098 A 
ENDBRANCH  31  32
ENDBRANCH   3  31
TORSDOF 7
ENDMDL
MODEL 7
REMARK VINA RESULT:      -8.6      3.048     10.100
REMARK  Name = 
REMARK  7 active torsions:
REMARK  status: ('A' for Active; 'I' for Inactive)
REMARK    1  A    between atoms: N_7  and  C_8
REMARK    2  A    between atoms: C_11  and  O_12
REMARK    3  A    between atoms: O_12  and  C_13
REMARK    4  A    between atoms: C_13  and  C_14
REMARK    5  A    between atoms: C_17  and  C_18
REMARK    6  A    between atoms: C_17  and  C_24
REMARK    7  A    between atoms: C_18  and  N_19
REMARK                            x       y       z     vdW  Elec       q    Type
REMARK                         _______ _______ _______ _____ _____    ______ ____
ROOT
ATOM      1  C   UNL     1       3.966   7.105  -4.785  0.00  0.00    +0.191 C 
ATOM      2  O   UNL     1       2.674   7.224  -3.951  0.00  0.00    -0.325 OA
ATOM      3  C   UNL     1       2.047   6.072  -4.124  0.00  0.00    +0.230 C 
ATOM      4  O   UNL     1       2.695   5.208  -4.971  0.00  0.00    -0.327 OA
ATOM      5  C   UNL     1       3.992   5.434  -4.610  0.00  0.00    +0.178 C 
ENDROOT
BRANCH   3   6
ATOM      6  C   UNL     1       0.732   6.354  -4.791  0.00  0.00    +0.041 A 
ATOM      7  C   UNL     1       0.016   5.336  -5.408  0.00  0.00    +0.059 A 
ATOM      8 CL   UNL     1       0.960   3.974  -5.948  0.00  0.00    -0.082 Cl
ATOM      9  C   UNL     1      -1.375   5.347  -5.412  0.00  0.00    +0.023 A 
ATOM     10  C   UNL     1      -2.080   6.318  -4.708  0.00  0.00    +0.058 A 
ATOM     11 CL   UNL     1      -3.479   5.918  -3.714  0.00  0.00    -0.082 Cl
ATOM     12  C   UNL     1      -1.379   7.505  -4.533  0.00  0.00    +0.011 A 
ATOM     13  C   UNL     1       0.010   7.507  -4.503  0.00  0.00    +0.002 A 
ENDBRANCH   3   6
BRANCH   1  14
ATOM     14  C   UNL     1       3.110   7.026  -6.234  0.00  0.00    +0.237 C 
BRANCH  14  15
ATOM     15  O   UNL     1       4.021   6.494  -7.139  0.00  0.00    -0.473 OA
BRANCH  15  19
ATOM     16  C   UNL     1       1.925   5.432 -10.418  0.00  0.00    +0.048 A 
ATOM     17  C   UNL     1       2.153   4.454  -9.466  0.00  0.00    +0.018 A 
ATOM     18  C   UNL     1       3.048   4.686  -8.451  0.00  0.00    +0.038 A 
ATOM     19  C   UNL     1       3.775   5.865  -8.329  0.00  0.00    +0.139 A 
ATOM     20  C   UNL     1       3.810   6.620  -9.496  0.00  0.00    +0.038 A 
ATOM     21  C   UNL     1       2.941   6.370 -10.552  0.00  0.00    +0.018 A 
BRANCH  16  27
ATOM     22  C   UNL     1       1.159   7.162 -15.586  0.00  0.00    +0.095 C 
ATOM     23  C   UNL     1       1.663   6.472 -14.563  0.00  0.00    +0.226 C 
ATOM     24  N   UNL     1       0.793   6.081 -13.493  0.00  0.00    -0.276 N 
ATOM     25  C   UNL     1       0.001   7.100 -12.836  0.00  0.00    +0.115 C 
ATOM     26  C   UNL     1       0.367   7.062 -11.368  0.00  0.00    +0.112 C 
ATOM     27  N   UNL     1       0.612   5.691 -10.929  0.00  0.00    -0.304 N 
ATOM     28  C   UNL     1       0.029   4.630 -11.743  0.00  0.00    +0.112 C 
ATOM     29  C   UNL     1       0.697   4.700 -13.102  0.00  0.00    +0.115 C 
ATOM     30  O   UNL     1       2.896   6.529 -14.289  0.00  0.00    -0.275 OA
ENDBRANCH  16  27
ENDBRANCH  15  19
ENDBRANCH  14  15
ENDBRANCH   1  14
BRANCH   3  31
ATOM     31  C   UNL     1       1.769   5.231  -2.899  0.00  0.00    +0.168 C 
BRANCH  31  32
ATOM     32  N   UNL     1       1.029   5.903  -1.876  0.00  0.00    -0.302 N 
ATOM     33  C   UNL     1      -0.176   5.395  -1.508  0.00  0.00    +0.179 A 
ATOM     34  N   UNL     1      -0.657   6.130  -0.509  0.00  0.00    -0.222 NA
ATOM     35  C   UNL     1       0.334   6.861   0.014  0.00  0.00    +0.119 A 
ATOM     36  C   UNL     1       1.411   6.657  -0.840  0.00  0.00    +0.098 A 
ENDBRANCH  31  32
ENDBRANCH   3  31
TORSDOF 7
ENDMDL
MODEL 8
REMARK VINA RESULT:      -8.5      3.118      9.936
REMARK  Name = 
REMARK  7 active torsions:
REMARK  status: ('A' for Active; 'I' for Inactive)
REMARK    1  A    between atoms: N_7  and  C_8
REMARK    2  A    between atoms: C_11  and  O_12
REMARK    3  A    between atoms: O_12  and  C_13
REMARK    4  A    between atoms: C_13  and  C_14
REMARK    5  A    between atoms: C_17  and  C_18
REMARK    6  A    between atoms: C_17  and  C_24
REMARK    7  A    between atoms: C_18  and  N_19
REMARK                            x       y       z     vdW  Elec       q    Type
REMARK                         _______ _______ _______ _____ _____    ______ ____
ROOT
ATOM      1  C   UNL     1       3.401   7.152  -4.036  0.00  0.00    +0.191 C 
ATOM      2  O   UNL     1       1.917   7.230  -3.626  0.00  0.00    -0.325 OA
ATOM      3  C   UNL     1       1.422   6.033  -3.901  0.00  0.00    +0.230 C 
ATOM      4  O   UNL     1       2.331   5.172  -4.465  0.00  0.00    -0.327 OA
ATOM      5  C   UNL     1       3.452   5.496  -3.756  0.00  0.00    +0.178 C 
ENDROOT
BRANCH   3   6
ATOM      6  C   UNL     1       0.352   6.201  -4.940  0.00  0.00    +0.041 A 
ATOM      7  C   UNL     1       0.021   5.156  -5.794  0.00  0.00    +0.059 A 
ATOM      8 CL   UNL     1       1.276   3.976  -6.060  0.00  0.00    -0.082 Cl
ATOM      9  C   UNL     1      -1.286   4.989  -6.239  0.00  0.00    +0.023 A 
ATOM     10  C   UNL     1      -2.310   5.798  -5.758  0.00  0.00    +0.058 A 
ATOM     11 CL   UNL     1      -3.873   5.139  -5.278  0.00  0.00    -0.082 Cl
ATOM     12  C   UNL     1      -1.882   7.045  -5.321  0.00  0.00    +0.011 A 
ATOM     13  C   UNL     1      -0.587   7.223  -4.850  0.00  0.00    +0.002 A 
ENDBRANCH   3   6
BRANCH   1  14
ATOM     14  C   UNL     1       3.017   6.951  -5.663  0.00  0.00    +0.237 C 
BRANCH  14  15
ATOM     15  O   UNL     1       4.078   6.215  -6.177  0.00  0.00    -0.473 OA
BRANCH  15  19
ATOM     16  C   UNL     1       4.547   5.772 -10.158  0.00  0.00    +0.048 A 
ATOM     17  C   UNL     1       3.284   5.547  -9.639  0.00  0.00    +0.018 A 
ATOM     18  C   UNL     1       3.113   5.453  -8.279  0.00  0.00    +0.038 A 
ATOM     19  C   UNL     1       4.160   5.551  -7.370  0.00  0.00    +0.139 A 
ATOM     20  C   UNL     1       5.414   5.374  -7.944  0.00  0.00    +0.038 A 
ATOM     21  C   UNL     1       5.599   5.421  -9.321  0.00  0.00    +0.018 A 
BRANCH  16  27
ATOM     22  C   UNL     1       9.441   6.109 -12.654  0.00  0.00    +0.095 C 
ATOM     23  C   UNL     1       8.380   5.568 -12.053  0.00  0.00    +0.226 C 
ATOM     24  N   UNL     1       7.083   6.120 -12.305  0.00  0.00    -0.276 N 
ATOM     25  C   UNL     1       6.880   7.539 -12.098  0.00  0.00    +0.115 C 
ATOM     26  C   UNL     1       5.767   7.681 -11.082  0.00  0.00    +0.112 C 
ATOM     27  N   UNL     1       4.754   6.647 -11.274  0.00  0.00    -0.304 N 
ATOM     28  C   UNL     1       4.703   6.017 -12.589  0.00  0.00    +0.112 C 
ATOM     29  C   UNL     1       6.014   5.279 -12.777  0.00  0.00    +0.115 C 
ATOM     30  O   UNL     1       8.510   4.909 -10.982  0.00  0.00    -0.275 OA
ENDBRANCH  16  27
ENDBRANCH  15  19
ENDBRANCH  14  15
ENDBRANCH   1  14
BRANCH   3  31
ATOM     31  C   UNL     1       0.834   5.235  -2.760  0.00  0.00    +0.168 C 
BRANCH  31  32
ATOM     32  N   UNL     1       0.499   6.012  -1.606  0.00  0.00    -0.302 N 
ATOM     33  C   UNL     1      -0.812   6.256  -1.348  0.00  0.00    +0.179 A 
ATOM     34  N   UNL     1      -0.898   6.934  -0.207  0.00  0.00    -0.222 NA
ATOM     35  C   UNL     1       0.260   6.827   0.455  0.00  0.00    +0.119 A 
ATOM     36  C   UNL     1       1.116   6.188  -0.433  0.00  0.00    +0.098 A 
ENDBRANCH  31  32
ENDBRANCH   3  31
TORSDOF 7
ENDMDL
MODEL 9
REMARK VINA RESULT:      -8.5      1.549      2.043
REMARK  Name = 
REMARK  7 active torsions:
REMARK  status: ('A' for Active; 'I' for Inactive)
REMARK    1  A    between atoms: N_7  and  C_8
REMARK    2  A    between atoms: C_11  and  O_12
REMARK    3  A    between atoms: O_12  and  C_13
REMARK    4  A    between atoms: C_13  and  C_14
REMARK    5  A    between atoms: C_17  and  C_18
REMARK    6  A    between atoms: C_17  and  C_24
REMARK    7  A    between atoms: C_18  and  N_19
REMARK                            x       y       z     vdW  Elec       q    Type
REMARK                         _______ _______ _______ _____ _____    ______ ____
ROOT
ATOM      1  C   UNL     1       0.371   6.535 -10.306  0.00  0.00    +0.191 C 
ATOM      2  O   UNL     1       1.613   6.834 -11.169  0.00  0.00    -0.325 OA
ATOM      3  C   UNL     1       2.392   5.773 -11.028  0.00  0.00    +0.230 C 
ATOM      4  O   UNL     1       1.886   4.821 -10.178  0.00  0.00    -0.327 OA
ATOM      5  C   UNL     1       0.561   4.877 -10.504  0.00  0.00    +0.178 C 
ENDROOT
BRANCH   3   6
ATOM      6  C   UNL     1       3.674   6.220 -10.390  0.00  0.00    +0.041 A 
ATOM      7  C   UNL     1       4.455   5.328  -9.665  0.00  0.00    +0.059 A 
ATOM      8 CL   UNL     1       3.606   3.965  -8.987  0.00  0.00    -0.082 Cl
ATOM      9  C   UNL     1       5.842   5.441  -9.657  0.00  0.00    +0.023 A 
ATOM     10  C   UNL     1       6.483   6.381 -10.457  0.00  0.00    +0.058 A 
ATOM     11 CL   UNL     1       7.918   5.982 -11.398  0.00  0.00    -0.082 Cl
ATOM     12  C   UNL     1       5.700   7.488 -10.761  0.00  0.00    +0.011 A 
ATOM     13  C   UNL     1       4.314   7.386 -10.796  0.00  0.00    +0.002 A 
ENDBRANCH   3   6
BRANCH   1  14
ATOM     14  C   UNL     1       1.267   6.554  -8.880  0.00  0.00    +0.237 C 
BRANCH  14  15
ATOM     15  O   UNL     1       0.398   6.041  -7.923  0.00  0.00    -0.473 OA
BRANCH  15  19
ATOM     16  C   UNL     1       2.549   5.724  -4.526  0.00  0.00    +0.048 A 
ATOM     17  C   UNL     1       2.293   4.558  -5.227  0.00  0.00    +0.018 A 
ATOM     18  C   UNL     1       1.379   4.566  -6.252  0.00  0.00    +0.038 A 
ATOM     19  C   UNL     1       0.662   5.696  -6.626  0.00  0.00    +0.139 A 
ATOM     20  C   UNL     1       0.657   6.697  -5.661  0.00  0.00    +0.038 A 
ATOM     21  C   UNL     1       1.545   6.682  -4.591  0.00  0.00    +0.018 A 
BRANCH  16  27
ATOM     22  C   UNL     1       3.549   7.618   0.544  0.00  0.00    +0.095 C 
ATOM     23  C   UNL     1       3.022   6.875  -0.430  0.00  0.00    +0.226 C 
ATOM     24  N   UNL     1       3.841   6.512  -1.548  0.00  0.00    -0.276 N 
ATOM     25  C   UNL     1       4.523   7.561  -2.277  0.00  0.00    +0.115 C 
ATOM     26  C   UNL     1       4.063   7.467  -3.716  0.00  0.00    +0.112 C 
ATOM     27  N   UNL     1       3.875   6.073  -4.111  0.00  0.00    -0.304 N 
ATOM     28  C   UNL     1       4.575   5.069  -3.317  0.00  0.00    +0.112 C 
ATOM     29  C   UNL     1       3.996   5.130  -1.918  0.00  0.00    +0.115 C 
ATOM     30  O   UNL     1       1.772   6.851  -0.620  0.00  0.00    -0.275 OA
ENDBRANCH  16  27
ENDBRANCH  15  19
ENDBRANCH  14  15
ENDBRANCH   1  14
BRANCH   3  31
ATOM     31  C   UNL     1       2.746   4.989 -12.272  0.00  0.00    +0.168 C 
BRANCH  31  32
ATOM     32  N   UNL     1       2.092   5.442 -13.461  0.00  0.00    -0.302 N 
ATOM     33  C   UNL     1       1.059   4.710 -13.952  0.00  0.00    +0.179 A 
ATOM     34  N   UNL     1       0.562   5.339 -15.013  0.00  0.00    -0.222 NA
ATOM     35  C   UNL     1       0.993   6.606 -15.013  0.00  0.00    +0.119 A 
ATOM     36  C   UNL     1       1.923   6.662 -13.983  0.00  0.00    +0.098 A 
ENDBRANCH  31  32
ENDBRANCH   3  31
TORSDOF 7
ENDMDL
