MODEL 1
REMARK VINA RESULT:      -6.5      0.000      0.000
REMARK  Name = 
REMARK  14 active torsions:
REMARK  status: ('A' for Active; 'I' for Inactive)
REMARK    1  A    between atoms: C_2  and  C_3
REMARK    2  A    between atoms: C_3  and  C_4
REMARK    3  A    between atoms: C_4  and  C_5
REMARK    4  A    between atoms: C_5  and  C_6
REMARK    5  A    between atoms: C_6  and  C_7
REMARK    6  A    between atoms: C_7  and  N_8
REMARK    7  A    between atoms: N_8  and  C_9
REMARK    8  A    between atoms: N_8  and  C_11
REMARK    9  A    between atoms: C_11  and  C_12
REMARK   10  A    between atoms: C_12  and  C_13
REMARK   11  A    between atoms: C_13  and  C_14
REMARK   12  A    between atoms: C_14  and  C_16
REMARK   13  A    between atoms: C_19  and  N_20
REMARK   14  A    between atoms: N_20  and  S_21
REMARK                            x       y       z     vdW  Elec       q    Type
REMARK                         _______ _______ _______ _____ _____    ______ ____
ROOT
ATOM      1  C   UNL     1       2.360   6.531  -4.783  0.00  0.00    +0.039 C 
ENDROOT
BRANCH   1   2
ATOM      2  C   UNL     1       2.552   4.955  -5.231  0.00  0.00    +0.174 C 
ATOM      3  O   UNL     1       3.972   4.916  -4.687  0.00  0.00    -0.218 OA
BRANCH   2   4
ATOM      4  C   UNL     1       3.074   5.391  -6.703  0.00  0.00    +0.008 A 
ATOM      5  C   UNL     1       3.101   6.756  -6.922  0.00  0.00    -0.000 A 
ATOM      6  C   UNL     1       2.750   7.241  -8.174  0.00  0.00    +0.018 A 
ATOM      7  C   UNL     1       2.051   6.441  -9.072  0.00  0.00    +0.091 A 
ATOM      8  C   UNL     1       2.251   5.076  -8.903  0.00  0.00    +0.018 A 
ATOM      9  C   UNL     1       2.731   4.545  -7.713  0.00  0.00    -0.000 A 
BRANCH   7  10
ATOM     10  N   UNL     1       0.939   6.951  -9.818  0.00  0.00    -0.101 NA
BRANCH  10  11
ATOM     11  S   UNL     1       0.697   6.558 -11.485  0.00  0.00    +0.075 S 
ATOM     12  O   UNL     1      -0.229   7.619 -12.035  0.00  0.00    -0.153 OA
ATOM     13  O   UNL     1       1.965   6.605 -12.268  0.00  0.00    -0.153 OA
ATOM     14  C   UNL     1      -0.039   4.949 -11.565  0.00  0.00    +0.202 C 
ENDBRANCH  10  11
ENDBRANCH   7  10
ENDBRANCH   2   4
ENDBRANCH   1   2
BRANCH   1  15
ATOM     15  C   UNL     1       1.071   6.608  -4.032  0.00  0.00    +0.020 C 
BRANCH  15  16
ATOM     16  C   UNL     1       0.635   5.207  -3.706  0.00  0.00    +0.072 C 
BRANCH  16  17
ATOM     17  N   UNL     1      -0.018   5.054  -2.455  0.00  0.00    -0.273 NA
BRANCH  17  18
ATOM     18  C   UNL     1       0.791   4.947  -1.302  0.00  0.00    +0.072 C 
ATOM     19  C   UNL     1       0.839   6.146  -0.416  0.00  0.00    +0.019 C 
ENDBRANCH  17  18
BRANCH  17  20
ATOM     20  C   UNL     1      -1.277   5.696  -2.314  0.00  0.00    +0.072 C 
BRANCH  20  21
ATOM     21  C   UNL     1      -2.298   5.346  -3.352  0.00  0.00    +0.017 C 
BRANCH  21  22
ATOM     22  C   UNL     1      -2.927   6.648  -3.832  0.00  0.00    +0.001 C 
BRANCH  22  23
ATOM     23  C   UNL     1      -2.405   6.867  -5.247  0.00  0.00    +0.000 C 
BRANCH  23  24
ATOM     24  C   UNL     1      -2.462   5.519  -5.929  0.00  0.00    +0.000 C 
BRANCH  24  26
ATOM     25  C   UNL     1      -0.882   5.419  -7.044  0.00  0.00    +0.000 C 
ATOM     26  C   UNL     1      -1.298   5.360  -6.902  0.00  0.00    +0.000 C 
ENDBRANCH  24  26
ENDBRANCH  23  24
ENDBRANCH  22  23
ENDBRANCH  21  22
ENDBRANCH  20  21
ENDBRANCH  17  20
ENDBRANCH  16  17
ENDBRANCH  15  16
ENDBRANCH   1  15
TORSDOF 14
ENDMDL
MODEL 2
REMARK VINA RESULT:      -6.4      2.888      3.519
REMARK  Name = 
REMARK  14 active torsions:
REMARK  status: ('A' for Active; 'I' for Inactive)
REMARK    1  A    between atoms: C_2  and  C_3
REMARK    2  A    between atoms: C_3  and  C_4
REMARK    3  A    between atoms: C_4  and  C_5
REMARK    4  A    between atoms: C_5  and  C_6
REMARK    5  A    between atoms: C_6  and  C_7
REMARK    6  A    between atoms: C_7  and  N_8
REMARK    7  A    between atoms: N_8  and  C_9
REMARK    8  A    between atoms: N_8  and  C_11
REMARK    9  A    between atoms: C_11  and  C_12
REMARK   10  A    between atoms: C_12  and  C_13
REMARK   11  A    between atoms: C_13  and  C_14
REMARK   12  A    between atoms: C_14  and  C_16
REMARK   13  A    between atoms: C_19  and  N_20
REMARK   14  A    between atoms: N_20  and  S_21
REMARK                            x       y       z     vdW  Elec       q    Type
REMARK                         _______ _______ _______ _____ _____    ______ ____
ROOT
ATOM      1  C   UNL     1       1.335   6.653  -6.517  0.00  0.00    +0.039 C 
ENDROOT
BRANCH   1   2
ATOM      2  C   UNL     1       2.785   7.279  -6.994  0.00  0.00    +0.174 C 
ATOM      3  O   UNL     1       2.110   8.353  -7.832  0.00  0.00    -0.218 OA
BRANCH   2   4
ATOM      4  C   UNL     1       2.857   6.266  -8.258  0.00  0.00    +0.008 A 
ATOM      5  C   UNL     1       3.601   5.122  -8.036  0.00  0.00    -0.000 A 
ATOM      6  C   UNL     1       4.381   4.619  -9.069  0.00  0.00    +0.018 A 
ATOM      7  C   UNL     1       4.698   5.411 -10.167  0.00  0.00    +0.091 A 
ATOM      8  C   UNL     1       3.776   6.415 -10.438  0.00  0.00    +0.018 A 
ATOM      9  C   UNL     1       2.878   6.866  -9.480  0.00  0.00    -0.000 A 
BRANCH   7  10
ATOM     10  N   UNL     1       6.026   5.445 -10.704  0.00  0.00    -0.101 NA
BRANCH  10  11
ATOM     11  S   UNL     1       6.325   5.451 -12.408  0.00  0.00    +0.075 S 
ATOM     12  O   UNL     1       7.614   4.686 -12.609  0.00  0.00    -0.153 OA
ATOM     13  O   UNL     1       5.253   4.751 -13.173  0.00  0.00    -0.153 OA
ATOM     14  C   UNL     1       6.481   7.136 -12.929  0.00  0.00    +0.202 C 
ENDBRANCH  10  11
ENDBRANCH   7  10
ENDBRANCH   2   4
ENDBRANCH   1   2
BRANCH   1  15
ATOM     15  C   UNL     1       1.263   6.819  -5.035  0.00  0.00    +0.020 C 
BRANCH  15  16
ATOM     16  C   UNL     1       1.675   5.521  -4.398  0.00  0.00    +0.072 C 
BRANCH  16  17
ATOM     17  N   UNL     1       1.466   5.445  -2.997  0.00  0.00    -0.273 NA
BRANCH  17  18
ATOM     18  C   UNL     1       2.606   5.313  -2.171  0.00  0.00    +0.072 C 
ATOM     19  C   UNL     1       3.921   5.608  -2.810  0.00  0.00    +0.019 C 
ENDBRANCH  17  18
BRANCH  17  20
ATOM     20  C   UNL     1       0.364   6.173  -2.477  0.00  0.00    +0.072 C 
BRANCH  20  21
ATOM     21  C   UNL     1      -0.923   5.412  -2.383  0.00  0.00    +0.017 C 
BRANCH  21  22
ATOM     22  C   UNL     1      -2.059   6.423  -2.465  0.00  0.00    +0.001 C 
BRANCH  22  23
ATOM     23  C   UNL     1      -2.908   6.002  -3.658  0.00  0.00    +0.000 C 
BRANCH  23  24
ATOM     24  C   UNL     1      -2.416   6.817  -4.832  0.00  0.00    +0.000 C 
BRANCH  24  26
ATOM     25  C   UNL     1      -2.305   5.592  -6.328  0.00  0.00    +0.000 C 
ATOM     26  C   UNL     1      -2.372   5.965  -6.096  0.00  0.00    +0.000 C 
ENDBRANCH  24  26
ENDBRANCH  23  24
ENDBRANCH  22  23
ENDBRANCH  21  22
ENDBRANCH  20  21
ENDBRANCH  17  20
ENDBRANCH  16  17
ENDBRANCH  15  16
ENDBRANCH   1  15
TORSDOF 14
ENDMDL
MODEL 3
REMARK VINA RESULT:      -6.4      2.855      4.292
REMARK  Name = 
REMARK  14 active torsions:
REMARK  status: ('A' for Active; 'I' for Inactive)
REMARK    1  A    between atoms: C_2  and  C_3
REMARK    2  A    between atoms: C_3  and  C_4
REMARK    3  A    between atoms: C_4  and  C_5
REMARK    4  A    between atoms: C_5  and  C_6
REMARK    5  A    between atoms: C_6  and  C_7
REMARK    6  A    between atoms: C_7  and  N_8
REMARK    7  A    between atoms: N_8  and  C_9
REMARK    8  A    between atoms: N_8  and  C_11
REMARK    9  A    between atoms: C_11  and  C_12
REMARK   10  A    between atoms: C_12  and  C_13
REMARK   11  A    between atoms: C_13  and  C_14
REMARK   12  A    between atoms: C_14  and  C_16
REMARK   13  A    between atoms: C_19  and  N_20
REMARK   14  A    between atoms: N_20  and  S_21
REMARK                            x       y       z     vdW  Elec       q    Type
REMARK                         _______ _______ _______ _____ _____    ______ ____
ROOT
ATOM      1  C   UNL     1       3.078   5.149  -5.151  0.00  0.00    +0.039 C 
ENDROOT
BRANCH   1   2
ATOM      2  C   UNL     1       4.103   6.139  -5.980  0.00  0.00    +0.174 C 
ATOM      3  O   UNL     1       3.240   7.360  -5.701  0.00  0.00    -0.218 OA
BRANCH   2   4
ATOM      4  C   UNL     1       3.329   5.847  -7.375  0.00  0.00    +0.008 A 
ATOM      5  C   UNL     1       3.510   4.571  -7.875  0.00  0.00    -0.000 A 
ATOM      6  C   UNL     1       3.629   4.401  -9.248  0.00  0.00    +0.018 A 
ATOM      7  C   UNL     1       3.921   5.481 -10.073  0.00  0.00    +0.091 A 
ATOM      8  C   UNL     1       3.512   6.713  -9.574  0.00  0.00    +0.018 A 
ATOM      9  C   UNL     1       3.247   6.908  -8.224  0.00  0.00    -0.000 A 
BRANCH   7  10
ATOM     10  N   UNL     1       4.892   5.380 -11.121  0.00  0.00    -0.101 NA
BRANCH  10  11
ATOM     11  S   UNL     1       6.521   5.924 -10.915  0.00  0.00    +0.075 S 
ATOM     12  O   UNL     1       6.838   5.749  -9.447  0.00  0.00    -0.153 OA
ATOM     13  O   UNL     1       7.494   5.105 -11.694  0.00  0.00    -0.153 OA
ATOM     14  C   UNL     1       6.594   7.626 -11.397  0.00  0.00    +0.202 C 
ENDBRANCH  10  11
ENDBRANCH   7  10
ENDBRANCH   2   4
ENDBRANCH   1   2
BRANCH   1  15
ATOM     15  C   UNL     1       1.848   5.947  -4.866  0.00  0.00    +0.020 C 
BRANCH  15  16
ATOM     16  C   UNL     1       0.668   5.015  -4.896  0.00  0.00    +0.072 C 
BRANCH  16  17
ATOM     17  N   UNL     1      -0.600   5.650  -4.942  0.00  0.00    -0.273 NA
BRANCH  17  18
ATOM     18  C   UNL     1      -0.853   6.677  -4.005  0.00  0.00    +0.072 C 
ATOM     19  C   UNL     1      -1.629   7.849  -4.506  0.00  0.00    +0.019 C 
ENDBRANCH  17  18
BRANCH  17  20
ATOM     20  C   UNL     1      -1.205   5.767  -6.221  0.00  0.00    +0.072 C 
BRANCH  20  21
ATOM     21  C   UNL     1      -0.576   4.952  -7.308  0.00  0.00    +0.017 C 
BRANCH  21  22
ATOM     22  C   UNL     1      -0.160   5.910  -8.417  0.00  0.00    +0.001 C 
BRANCH  22  23
ATOM     23  C   UNL     1       0.053   5.048  -9.656  0.00  0.00    +0.000 C 
BRANCH  23  24
ATOM     24  C   UNL     1       0.075   6.000 -10.830  0.00  0.00    +0.000 C 
BRANCH  24  26
ATOM     25  C   UNL     1       0.857   5.002 -12.294  0.00  0.00    +0.000 C 
ATOM     26  C   UNL     1       0.732   5.344 -12.040  0.00  0.00    +0.000 C 
ENDBRANCH  24  26
ENDBRANCH  23  24
ENDBRANCH  22  23
ENDBRANCH  21  22
ENDBRANCH  20  21
ENDBRANCH  17  20
ENDBRANCH  16  17
ENDBRANCH  15  16
ENDBRANCH   1  15
TORSDOF 14
ENDMDL
MODEL 4
REMARK VINA RESULT:      -6.3      3.482      7.657
REMARK  Name = 
REMARK  14 active torsions:
REMARK  status: ('A' for Active; 'I' for Inactive)
REMARK    1  A    between atoms: C_2  and  C_3
REMARK    2  A    between atoms: C_3  and  C_4
REMARK    3  A    between atoms: C_4  and  C_5
REMARK    4  A    between atoms: C_5  and  C_6
REMARK    5  A    between atoms: C_6  and  C_7
REMARK    6  A    between atoms: C_7  and  N_8
REMARK    7  A    between atoms: N_8  and  C_9
REMARK    8  A    between atoms: N_8  and  C_11
REMARK    9  A    between atoms: C_11  and  C_12
REMARK   10  A    between atoms: C_12  and  C_13
REMARK   11  A    between atoms: C_13  and  C_14
REMARK   12  A    between atoms: C_14  and  C_16
REMARK   13  A    between atoms: C_19  and  N_20
REMARK   14  A    between atoms: N_20  and  S_21
REMARK                            x       y       z     vdW  Elec       q    Type
REMARK                         _______ _______ _______ _____ _____    ______ ____
ROOT
ATOM      1  C   UNL     1       1.941   5.202  -9.101  0.00  0.00    +0.039 C 
ENDROOT
BRANCH   1   2
ATOM      2  C   UNL     1       0.684   6.239  -8.843  0.00  0.00    +0.174 C 
ATOM      3  O   UNL     1       1.496   7.066  -7.857  0.00  0.00    -0.218 OA
BRANCH   2   4
ATOM      4  C   UNL     1       0.099   5.304  -7.655  0.00  0.00    +0.008 A 
ATOM      5  C   UNL     1      -1.224   5.545  -7.333  0.00  0.00    -0.000 A 
ATOM      6  C   UNL     1      -1.613   5.479  -6.002  0.00  0.00    +0.018 A 
ATOM      7  C   UNL     1      -0.666   5.526  -4.985  0.00  0.00    +0.091 A 
ATOM      8  C   UNL     1       0.594   5.064  -5.349  0.00  0.00    +0.018 A 
ATOM      9  C   UNL     1       0.990   4.982  -6.678  0.00  0.00    -0.000 A 
BRANCH   7  10
ATOM     10  N   UNL     1      -0.860   6.337  -3.819  0.00  0.00    -0.101 NA
BRANCH  10  11
ATOM     11  S   UNL     1      -1.343   5.659  -2.302  0.00  0.00    +0.075 S 
ATOM     12  O   UNL     1      -2.551   4.798  -2.594  0.00  0.00    -0.153 OA
ATOM     13  O   UNL     1      -0.289   4.785  -1.712  0.00  0.00    -0.153 OA
ATOM     14  C   UNL     1      -1.744   6.995  -1.212  0.00  0.00    +0.202 C 
ENDBRANCH  10  11
ENDBRANCH   7  10
ENDBRANCH   2   4
ENDBRANCH   1   2
BRANCH   1  15
ATOM     15  C   UNL     1       2.671   5.705 -10.304  0.00  0.00    +0.020 C 
BRANCH  15  16
ATOM     16  C   UNL     1       4.010   5.024 -10.356  0.00  0.00    +0.072 C 
BRANCH  16  17
ATOM     17  N   UNL     1       5.130   5.887 -10.238  0.00  0.00    -0.273 NA
BRANCH  17  18
ATOM     18  C   UNL     1       4.983   7.217 -10.695  0.00  0.00    +0.072 C 
ATOM     19  C   UNL     1       6.194   7.845 -11.297  0.00  0.00    +0.019 C 
ENDBRANCH  17  18
BRANCH  17  20
ATOM     20  C   UNL     1       5.989   5.668  -9.129  0.00  0.00    +0.072 C 
BRANCH  20  21
ATOM     21  C   UNL     1       5.361   4.982  -7.955  0.00  0.00    +0.017 C 
BRANCH  21  22
ATOM     22  C   UNL     1       4.655   6.047  -7.126  0.00  0.00    +0.001 C 
BRANCH  22  23
ATOM     23  C   UNL     1       4.453   5.436  -5.745  0.00  0.00    +0.000 C 
BRANCH  23  24
ATOM     24  C   UNL     1       4.053   6.576  -4.836  0.00  0.00    +0.000 C 
BRANCH  24  26
ATOM     25  C   UNL     1       5.549   7.586  -4.134  0.00  0.00    +0.000 C 
ATOM     26  C   UNL     1       5.288   7.242  -4.237  0.00  0.00    +0.000 C 
ENDBRANCH  24  26
ENDBRANCH  23  24
ENDBRANCH  22  23
ENDBRANCH  21  22
ENDBRANCH  20  21
ENDBRANCH  17  20
ENDBRANCH  16  17
ENDBRANCH  15  16
ENDBRANCH   1  15
TORSDOF 14
ENDMDL
MODEL 5
REMARK VINA RESULT:      -6.3      3.637      5.414
REMARK  Name = 
REMARK  14 active torsions:
REMARK  status: ('A' for Active; 'I' for Inactive)
REMARK    1  A    between atoms: C_2  and  C_3
REMARK    2  A    between atoms: C_3  and  C_4
REMARK    3  A    between atoms: C_4  and  C_5
REMARK    4  A    between atoms: C_5  and  C_6
REMARK    5  A    between atoms: C_6  and  C_7
REMARK    6  A    between atoms: C_7  and  N_8
REMARK    7  A    between atoms: N_8  and  C_9
REMARK    8  A    between atoms: N_8  and  C_11
REMARK    9  A    between atoms: C_11  and  C_12
REMARK   10  A    between atoms: C_12  and  C_13
REMARK   11  A    between atoms: C_13  and  C_14
REMARK   12  A    between atoms: C_14  and  C_16
REMARK   13  A    between atoms: C_19  and  N_20
REMARK   14  A    between atoms: N_20  and  S_21
REMARK                            x       y       z     vdW  Elec       q    Type
REMARK                         _______ _______ _______ _____ _____    ______ ____
ROOT
ATOM      1  C   UNL     1       2.603   5.221  -9.255  0.00  0.00    +0.039 C 
ENDROOT
BRANCH   1   2
ATOM      2  C   UNL     1       4.009   4.397  -9.001  0.00  0.00    +0.174 C 
ATOM      3  O   UNL     1       3.922   4.600  -7.496  0.00  0.00    -0.218 OA
BRANCH   2   4
ATOM      4  C   UNL     1       4.886   5.749  -9.183  0.00  0.00    +0.008 A 
ATOM      5  C   UNL     1       4.308   6.703 -10.000  0.00  0.00    -0.000 A 
ATOM      6  C   UNL     1       5.123   7.445 -10.844  0.00  0.00    +0.018 A 
ATOM      7  C   UNL     1       6.414   7.019 -11.137  0.00  0.00    +0.091 A 
ATOM      8  C   UNL     1       6.995   6.227 -10.153  0.00  0.00    +0.018 A 
ATOM      9  C   UNL     1       6.235   5.567  -9.197  0.00  0.00    -0.000 A 
BRANCH   7  10
ATOM     10  N   UNL     1       6.927   7.053 -12.474  0.00  0.00    -0.101 NA
BRANCH  10  11
ATOM     11  S   UNL     1       6.781   5.703 -13.546  0.00  0.00    +0.075 S 
ATOM     12  O   UNL     1       7.935   4.782 -13.217  0.00  0.00    -0.153 OA
ATOM     13  O   UNL     1       5.515   4.944 -13.332  0.00  0.00    -0.153 OA
ATOM     14  C   UNL     1       6.886   6.310 -15.206  0.00  0.00    +0.202 C 
ENDBRANCH  10  11
ENDBRANCH   7  10
ENDBRANCH   2   4
ENDBRANCH   1   2
BRANCH   1  15
ATOM     15  C   UNL     1       1.653   4.785  -8.188  0.00  0.00    +0.020 C 
BRANCH  15  16
ATOM     16  C   UNL     1       0.426   5.650  -8.273  0.00  0.00    +0.072 C 
BRANCH  16  17
ATOM     17  N   UNL     1      -0.193   5.942  -7.030  0.00  0.00    -0.273 NA
BRANCH  17  18
ATOM     18  C   UNL     1      -1.366   5.227  -6.698  0.00  0.00    +0.072 C 
ATOM     19  C   UNL     1      -2.545   6.045  -6.293  0.00  0.00    +0.019 C 
ENDBRANCH  17  18
BRANCH  17  20
ATOM     20  C   UNL     1       0.667   6.317  -5.964  0.00  0.00    +0.072 C 
BRANCH  20  21
ATOM     21  C   UNL     1       0.670   5.395  -4.784  0.00  0.00    +0.017 C 
BRANCH  21  22
ATOM     22  C   UNL     1       2.123   5.085  -4.449  0.00  0.00    +0.001 C 
BRANCH  22  23
ATOM     23  C   UNL     1       2.789   6.431  -4.189  0.00  0.00    +0.000 C 
BRANCH  23  24
ATOM     24  C   UNL     1       4.228   6.280  -4.627  0.00  0.00    +0.000 C 
BRANCH  24  26
ATOM     25  C   UNL     1       5.075   7.958  -4.160  0.00  0.00    +0.000 C 
ATOM     26  C   UNL     1       5.022   7.542  -4.304  0.00  0.00    +0.000 C 
ENDBRANCH  24  26
ENDBRANCH  23  24
ENDBRANCH  22  23
ENDBRANCH  21  22
ENDBRANCH  20  21
ENDBRANCH  17  20
ENDBRANCH  16  17
ENDBRANCH  15  16
ENDBRANCH   1  15
TORSDOF 14
ENDMDL
MODEL 6
REMARK VINA RESULT:      -6.3      3.491      4.242
REMARK  Name = 
REMARK  14 active torsions:
REMARK  status: ('A' for Active; 'I' for Inactive)
REMARK    1  A    between atoms: C_2  and  C_3
REMARK    2  A    between atoms: C_3  and  C_4
REMARK    3  A    between atoms: C_4  and  C_5
REMARK    4  A    between atoms: C_5  and  C_6
REMARK    5  A    between atoms: C_6  and  C_7
REMARK    6  A    between atoms: C_7  and  N_8
REMARK    7  A    between atoms: N_8  and  C_9
REMARK    8  A    between atoms: N_8  and  C_11
REMARK    9  A    between atoms: C_11  and  C_12
REMARK   10  A    between atoms: C_12  and  C_13
REMARK   11  A    between atoms: C_13  and  C_14
REMARK   12  A    between atoms: C_14  and  C_16
REMARK   13  A    between atoms: C_19  and  N_20
REMARK   14  A    between atoms: N_20  and  S_21
REMARK                            x       y       z     vdW  Elec       q    Type
REMARK                         _______ _______ _______ _____ _____    ______ ____
ROOT
ATOM      1  C   UNL     1       2.979   4.934  -7.564  0.00  0.00    +0.039 C 
ENDROOT
BRANCH   1   2
ATOM      2  C   UNL     1       3.113   4.871  -9.207  0.00  0.00    +0.174 C 
ATOM      3  O   UNL     1       4.124   3.737  -9.136  0.00  0.00    -0.218 OA
BRANCH   2   4
ATOM      4  C   UNL     1       4.289   5.988  -9.198  0.00  0.00    +0.008 A 
ATOM      5  C   UNL     1       4.062   7.068 -10.030  0.00  0.00    -0.000 A 
ATOM      6  C   UNL     1       5.133   7.621 -10.718  0.00  0.00    +0.018 A 
ATOM      7  C   UNL     1       6.322   6.916 -10.862  0.00  0.00    +0.091 A 
ATOM      8  C   UNL     1       6.567   5.988  -9.855  0.00  0.00    +0.018 A 
ATOM      9  C   UNL     1       5.551   5.500  -9.044  0.00  0.00    -0.000 A 
BRANCH   7  10
ATOM     10  N   UNL     1       7.012   6.861 -12.117  0.00  0.00    -0.101 NA
BRANCH  10  11
ATOM     11  S   UNL     1       6.746   5.585 -13.253  0.00  0.00    +0.075 S 
ATOM     12  O   UNL     1       7.848   4.576 -13.015  0.00  0.00    -0.153 OA
ATOM     13  O   UNL     1       5.441   4.897 -13.038  0.00  0.00    -0.153 OA
ATOM     14  C   UNL     1       6.840   6.275 -14.881  0.00  0.00    +0.202 C 
ENDBRANCH  10  11
ENDBRANCH   7  10
ENDBRANCH   2   4
ENDBRANCH   1   2
BRANCH   1  15
ATOM     15  C   UNL     1       1.929   5.952  -7.259  0.00  0.00    +0.020 C 
BRANCH  15  16
ATOM     16  C   UNL     1       2.259   6.581  -5.934  0.00  0.00    +0.072 C 
BRANCH  16  17
ATOM     17  N   UNL     1       2.282   5.688  -4.832  0.00  0.00    -0.273 NA
BRANCH  17  18
ATOM     18  C   UNL     1       3.267   5.897  -3.839  0.00  0.00    +0.072 C 
ATOM     19  C   UNL     1       4.417   4.948  -3.841  0.00  0.00    +0.019 C 
ENDBRANCH  17  18
BRANCH  17  20
ATOM     20  C   UNL     1       1.031   5.164  -4.412  0.00  0.00    +0.072 C 
BRANCH  20  21
ATOM     21  C   UNL     1       0.590   5.573  -3.040  0.00  0.00    +0.017 C 
BRANCH  21  22
ATOM     22  C   UNL     1      -0.899   5.885  -3.112  0.00  0.00    +0.001 C 
BRANCH  22  23
ATOM     23  C   UNL     1      -1.083   6.761  -4.346  0.00  0.00    +0.000 C 
BRANCH  23  24
ATOM     24  C   UNL     1      -2.392   6.336  -4.970  0.00  0.00    +0.000 C 
BRANCH  24  26
ATOM     25  C   UNL     1      -1.932   5.511  -6.660  0.00  0.00    +0.000 C 
ATOM     26  C   UNL     1      -2.158   5.738  -6.353  0.00  0.00    +0.000 C 
ENDBRANCH  24  26
ENDBRANCH  23  24
ENDBRANCH  22  23
ENDBRANCH  21  22
ENDBRANCH  20  21
ENDBRANCH  17  20
ENDBRANCH  16  17
ENDBRANCH  15  16
ENDBRANCH   1  15
TORSDOF 14
ENDMDL
MODEL 7
REMARK VINA RESULT:      -6.3      3.282      6.603
REMARK  Name = 
REMARK  14 active torsions:
REMARK  status: ('A' for Active; 'I' for Inactive)
REMARK    1  A    between atoms: C_2  and  C_3
REMARK    2  A    between atoms: C_3  and  C_4
REMARK    3  A    between atoms: C_4  and  C_5
REMARK    4  A    between atoms: C_5  and  C_6
REMARK    5  A    between atoms: C_6  and  C_7
REMARK    6  A    between atoms: C_7  and  N_8
REMARK    7  A    between atoms: N_8  and  C_9
REMARK    8  A    between atoms: N_8  and  C_11
REMARK    9  A    between atoms: C_11  and  C_12
REMARK   10  A    between atoms: C_12  and  C_13
REMARK   11  A    between atoms: C_13  and  C_14
REMARK   12  A    between atoms: C_14  and  C_16
REMARK   13  A    between atoms: C_19  and  N_20
REMARK   14  A    between atoms: N_20  and  S_21
REMARK                            x       y       z     vdW  Elec       q    Type
REMARK                         _______ _______ _______ _____ _____    ______ ____
ROOT
ATOM      1  C   UNL     1       2.605   7.110  -6.342  0.00  0.00    +0.039 C 
ENDROOT
BRANCH   1   2
ATOM      2  C   UNL     1       3.512   5.772  -6.668  0.00  0.00    +0.174 C 
ATOM      3  O   UNL     1       2.581   4.876  -5.865  0.00  0.00    -0.218 OA
BRANCH   2   4
ATOM      4  C   UNL     1       4.453   6.039  -5.376  0.00  0.00    +0.008 A 
ATOM      5  C   UNL     1       4.534   4.977  -4.494  0.00  0.00    -0.000 A 
ATOM      6  C   UNL     1       4.576   5.239  -3.131  0.00  0.00    +0.018 A 
ATOM      7  C   UNL     1       4.191   6.480  -2.637  0.00  0.00    +0.091 A 
ATOM      8  C   UNL     1       4.342   7.530  -3.536  0.00  0.00    +0.018 A 
ATOM      9  C   UNL     1       4.441   7.317  -4.905  0.00  0.00    -0.000 A 
BRANCH   7  10
ATOM     10  N   UNL     1       3.354   6.597  -1.479  0.00  0.00    -0.101 NA
BRANCH  10  11
ATOM     11  S   UNL     1       1.868   5.724  -1.333  0.00  0.00    +0.075 S 
ATOM     12  O   UNL     1       1.346   5.546  -2.741  0.00  0.00    -0.153 OA
ATOM     13  O   UNL     1       2.063   4.368  -0.742  0.00  0.00    -0.153 OA
ATOM     14  C   UNL     1       0.761   6.693  -0.347  0.00  0.00    +0.202 C 
ENDBRANCH  10  11
ENDBRANCH   7  10
ENDBRANCH   2   4
ENDBRANCH   1   2
BRANCH   1  15
ATOM     15  C   UNL     1       2.222   7.700  -7.659  0.00  0.00    +0.020 C 
BRANCH  15  16
ATOM     16  C   UNL     1       2.378   6.637  -8.711  0.00  0.00    +0.072 C 
BRANCH  16  17
ATOM     17  N   UNL     1       1.179   6.256  -9.366  0.00  0.00    -0.273 NA
BRANCH  17  18
ATOM     18  C   UNL     1       1.123   6.408 -10.770  0.00  0.00    +0.072 C 
ATOM     19  C   UNL     1      -0.020   7.205 -11.303  0.00  0.00    +0.019 C 
ENDBRANCH  17  18
BRANCH  17  20
ATOM     20  C   UNL     1       0.459   5.173  -8.797  0.00  0.00    +0.072 C 
BRANCH  20  21
ATOM     21  C   UNL     1      -0.821   5.540  -8.113  0.00  0.00    +0.017 C 
BRANCH  21  22
ATOM     22  C   UNL     1      -0.721   5.067  -6.669  0.00  0.00    +0.001 C 
BRANCH  22  23
ATOM     23  C   UNL     1      -1.714   5.914  -5.881  0.00  0.00    +0.000 C 
BRANCH  23  24
ATOM     24  C   UNL     1      -0.894   6.957  -5.156  0.00  0.00    +0.000 C 
BRANCH  24  26
ATOM     25  C   UNL     1      -1.952   8.417  -4.449  0.00  0.00    +0.000 C 
ATOM     26  C   UNL     1      -1.801   8.006  -4.521  0.00  0.00    +0.000 C 
ENDBRANCH  24  26
ENDBRANCH  23  24
ENDBRANCH  22  23
ENDBRANCH  21  22
ENDBRANCH  20  21
ENDBRANCH  17  20
ENDBRANCH  16  17
ENDBRANCH  15  16
ENDBRANCH   1  15
TORSDOF 14
ENDMDL
MODEL 8
REMARK VINA RESULT:      -6.2      3.879      8.041
REMARK  Name = 
REMARK  14 active torsions:
REMARK  status: ('A' for Active; 'I' for Inactive)
REMARK    1  A    between atoms: C_2  and  C_3
REMARK    2  A    between atoms: C_3  and  C_4
REMARK    3  A    between atoms: C_4  and  C_5
REMARK    4  A    between atoms: C_5  and  C_6
REMARK    5  A    between atoms: C_6  and  C_7
REMARK    6  A    between atoms: C_7  and  N_8
REMARK    7  A    between atoms: N_8  and  C_9
REMARK    8  A    between atoms: N_8  and  C_11
REMARK    9  A    between atoms: C_11  and  C_12
REMARK   10  A    between atoms: C_12  and  C_13
REMARK   11  A    between atoms: C_13  and  C_14
REMARK   12  A    between atoms: C_14  and  C_16
REMARK   13  A    between atoms: C_19  and  N_20
REMARK   14  A    between atoms: N_20  and  S_21
REMARK                            x       y       z     vdW  Elec       q    Type
REMARK                         _______ _______ _______ _____ _____    ______ ____
ROOT
ATOM      1  C   UNL     1       3.604   5.606  -6.944  0.00  0.00    +0.039 C 
ENDROOT
BRANCH   1   2
ATOM      2  C   UNL     1       2.563   4.718  -6.024  0.00  0.00    +0.174 C 
ATOM      3  O   UNL     1       2.303   3.741  -7.161  0.00  0.00    -0.218 OA
BRANCH   2   4
ATOM      4  C   UNL     1       1.309   5.646  -6.467  0.00  0.00    +0.008 A 
ATOM      5  C   UNL     1       1.162   6.804  -5.727  0.00  0.00    -0.000 A 
ATOM      6  C   UNL     1      -0.119   7.240  -5.414  0.00  0.00    +0.018 A 
ATOM      7  C   UNL     1      -1.205   6.379  -5.517  0.00  0.00    +0.091 A 
ATOM      8  C   UNL     1      -1.043   5.357  -6.446  0.00  0.00    +0.018 A 
ATOM      9  C   UNL     1       0.210   4.967  -6.898  0.00  0.00    -0.000 A 
BRANCH   7  10
ATOM     10  N   UNL     1      -2.206   6.313  -4.494  0.00  0.00    -0.101 NA
BRANCH  10  11
ATOM     11  S   UNL     1      -1.840   5.786  -2.887  0.00  0.00    +0.075 S 
ATOM     12  O   UNL     1      -2.831   4.689  -2.571  0.00  0.00    -0.153 OA
ATOM     13  O   UNL     1      -0.468   5.211  -2.779  0.00  0.00    -0.153 OA
ATOM     14  C   UNL     1      -2.035   7.171  -1.802  0.00  0.00    +0.202 C 
ENDBRANCH  10  11
ENDBRANCH   7  10
ENDBRANCH   2   4
ENDBRANCH   1   2
BRANCH   1  15
ATOM     15  C   UNL     1       3.709   4.913  -8.263  0.00  0.00    +0.020 C 
BRANCH  15  16
ATOM     16  C   UNL     1       3.761   5.961  -9.339  0.00  0.00    +0.072 C 
BRANCH  16  17
ATOM     17  N   UNL     1       3.088   5.623 -10.542  0.00  0.00    -0.273 NA
BRANCH  17  18
ATOM     18  C   UNL     1       1.690   5.429 -10.479  0.00  0.00    +0.072 C 
ATOM     19  C   UNL     1       0.872   6.628 -10.138  0.00  0.00    +0.019 C 
ENDBRANCH  17  18
BRANCH  17  20
ATOM     20  C   UNL     1       3.619   6.167 -11.742  0.00  0.00    +0.072 C 
BRANCH  20  21
ATOM     21  C   UNL     1       4.678   5.345 -12.408  0.00  0.00    +0.017 C 
BRANCH  21  22
ATOM     22  C   UNL     1       5.930   6.206 -12.509  0.00  0.00    +0.001 C 
BRANCH  22  23
ATOM     23  C   UNL     1       7.105   5.267 -12.265  0.00  0.00    +0.000 C 
BRANCH  23  24
ATOM     24  C   UNL     1       8.008   5.970 -11.278  0.00  0.00    +0.000 C 
BRANCH  24  26
ATOM     25  C   UNL     1       7.434   5.913  -9.430  0.00  0.00    +0.000 C 
ATOM     26  C   UNL     1       7.484   5.800  -9.856  0.00  0.00    +0.000 C 
ENDBRANCH  24  26
ENDBRANCH  23  24
ENDBRANCH  22  23
ENDBRANCH  21  22
ENDBRANCH  20  21
ENDBRANCH  17  20
ENDBRANCH  16  17
ENDBRANCH  15  16
ENDBRANCH   1  15
TORSDOF 14
ENDMDL
MODEL 9
REMARK VINA RESULT:      -6.2      2.581      4.920
REMARK  Name = 
REMARK  14 active torsions:
REMARK  status: ('A' for Active; 'I' for Inactive)
REMARK    1  A    between atoms: C_2  and  C_3
REMARK    2  A    between atoms: C_3  and  C_4
REMARK    3  A    between atoms: C_4  and  C_5
REMARK    4  A    between atoms: C_5  and  C_6
REMARK    5  A    between atoms: C_6  and  C_7
REMARK    6  A    between atoms: C_7  and  N_8
REMARK    7  A    between atoms: N_8  and  C_9
REMARK    8  A    between atoms: N_8  and  C_11
REMARK    9  A    between atoms: C_11  and  C_12
REMARK   10  A    between atoms: C_12  and  C_13
REMARK   11  A    between atoms: C_13  and  C_14
REMARK   12  A    between atoms: C_14  and  C_16
REMARK   13  A    between atoms: C_19  and  N_20
REMARK   14  A    between atoms: N_20  and  S_21
REMARK                            x       y       z     vdW  Elec       q    Type
REMARK                         _______ _______ _______ _____ _____    ______ ____
ROOT
ATOM      1  C   UNL     1      -0.448   5.343  -2.601  0.00  0.00    +0.039 C 
ENDROOT
BRANCH   1   2
ATOM      2  C   UNL     1      -1.929   6.030  -2.359  0.00  0.00    +0.174 C 
ATOM      3  O   UNL     1      -2.647   4.727  -2.676  0.00  0.00    -0.218 OA
BRANCH   2   4
ATOM      4  C   UNL     1      -2.008   6.510  -3.905  0.00  0.00    +0.008 A 
ATOM      5  C   UNL     1      -2.632   5.613  -4.754  0.00  0.00    -0.000 A 
ATOM      6  C   UNL     1      -2.135   5.451  -6.040  0.00  0.00    +0.018 A 
ATOM      7  C   UNL     1      -0.855   5.887  -6.364  0.00  0.00    +0.091 A 
ATOM      8  C   UNL     1      -0.390   6.940  -5.583  0.00  0.00    +0.018 A 
ATOM      9  C   UNL     1      -0.942   7.234  -4.343  0.00  0.00    -0.000 A 
BRANCH   7  10
ATOM     10  N   UNL     1       0.036   5.077  -7.140  0.00  0.00    -0.101 NA
BRANCH  10  11
ATOM     11  S   UNL     1       0.976   5.733  -8.436  0.00  0.00    +0.075 S 
ATOM     12  O   UNL     1      -0.002   6.045  -9.546  0.00  0.00    -0.153 OA
ATOM     13  O   UNL     1       1.658   7.004  -8.055  0.00  0.00    -0.153 OA
ATOM     14  C   UNL     1       2.152   4.506  -8.932  0.00  0.00    +0.202 C 
ENDBRANCH  10  11
ENDBRANCH   7  10
ENDBRANCH   2   4
ENDBRANCH   1   2
BRANCH   1  15
ATOM     15  C   UNL     1       0.261   5.380  -1.287  0.00  0.00    +0.020 C 
BRANCH  15  16
ATOM     16  C   UNL     1       1.276   6.488  -1.335  0.00  0.00    +0.072 C 
BRANCH  16  17
ATOM     17  N   UNL     1       2.594   6.114  -0.965  0.00  0.00    -0.273 NA
BRANCH  17  18
ATOM     18  C   UNL     1       2.975   4.768  -1.168  0.00  0.00    +0.072 C 
ATOM     19  C   UNL     1       4.433   4.473  -1.065  0.00  0.00    +0.019 C 
ENDBRANCH  17  18
BRANCH  17  20
ATOM     20  C   UNL     1       3.600   7.107  -1.107  0.00  0.00    +0.072 C 
BRANCH  20  21
ATOM     21  C   UNL     1       3.581   7.862  -2.400  0.00  0.00    +0.017 C 
BRANCH  21  22
ATOM     22  C   UNL     1       4.880   7.550  -3.130  0.00  0.00    +0.001 C 
BRANCH  22  23
ATOM     23  C   UNL     1       4.498   7.334  -4.590  0.00  0.00    +0.000 C 
BRANCH  23  24
ATOM     24  C   UNL     1       3.045   6.918  -4.586  0.00  0.00    +0.000 C 
BRANCH  24  26
ATOM     25  C   UNL     1       2.858   5.011  -4.863  0.00  0.00    +0.000 C 
ATOM     26  C   UNL     1       2.908   5.443  -4.949  0.00  0.00    +0.000 C 
ENDBRANCH  24  26
ENDBRANCH  23  24
ENDBRANCH  22  23
ENDBRANCH  21  22
ENDBRANCH  20  21
ENDBRANCH  17  20
ENDBRANCH  16  17
ENDBRANCH  15  16
ENDBRANCH   1  15
TORSDOF 14
ENDMDL
