MODEL 1
REMARK VINA RESULT:      -6.3      0.000      0.000
REMARK  Name = 
REMARK  10 active torsions:
REMARK  status: ('A' for Active; 'I' for Inactive)
REMARK    1  A    between atoms: O_2  and  C_3
REMARK    2  A    between atoms: C_3  and  C_4
REMARK    3  A    between atoms: C_4  and  C_5
REMARK    4  A    between atoms: C_5  and  C_6
REMARK    5  A    between atoms: C_6  and  C_7
REMARK    6  A    between atoms: C_7  and  C_13
REMARK    7  A    between atoms: N_8  and  O_9
REMARK    8  A    between atoms: O_9  and  C_10
REMARK    9  A    between atoms: C_10  and  C_11
REMARK   10  A    between atoms: C_16  and  C_17
REMARK                            x       y       z     vdW  Elec       q    Type
REMARK                         _______ _______ _______ _____ _____    ______ ____
ROOT
ATOM      1  C   UNL     1       2.267   6.025  -8.496  0.00  0.00    +0.097 C 
ATOM      2  N   UNL     1       1.396   5.077  -8.679  0.00  0.00    -0.087 NA
ENDROOT
BRANCH   1   3
ATOM      3  C   UNL     1       3.535   5.855  -9.215  0.00  0.00    +0.017 A 
ATOM      4  C   UNL     1       4.633   5.532  -8.429  0.00  0.00    +0.001 A 
ATOM      5  C   UNL     1       5.854   5.400  -9.053  0.00  0.00    +0.004 A 
ATOM      6  C   UNL     1       6.158   6.354 -10.012  0.00  0.00    +0.071 A 
ATOM      7  C   UNL     1       5.124   6.960 -10.679  0.00  0.00    +0.004 A 
ATOM      8  C   UNL     1       3.819   6.639 -10.326  0.00  0.00    +0.001 A 
BRANCH   6   9
ATOM      9  C   UNL     1       7.571   6.401 -10.475  0.00  0.00    +0.419 C 
ATOM     10  F   UNL     1       8.198   7.432  -9.805  0.00  0.00    -0.166 F 
ATOM     11  F   UNL     1       8.193   5.230 -10.069  0.00  0.00    -0.166 F 
ATOM     12  F   UNL     1       7.622   6.545 -11.843  0.00  0.00    -0.166 F 
ENDBRANCH   6   9
ENDBRANCH   1   3
BRANCH   1  13
ATOM     13  C   UNL     1       1.946   7.309  -7.834  0.00  0.00    +0.049 C 
BRANCH  13  14
ATOM     14  C   UNL     1       1.380   7.136  -6.451  0.00  0.00    +0.009 C 
BRANCH  14  15
ATOM     15  C   UNL     1       2.492   6.714  -5.541  0.00  0.00    +0.032 C 
BRANCH  15  16
ATOM     16  C   UNL     1       2.275   5.389  -4.875  0.00  0.00    +0.142 C 
BRANCH  16  18
ATOM     17  C   UNL     1       4.556   5.030  -4.675  0.00  0.00    +0.174 C 
ATOM     18  O   UNL     1       3.320   4.499  -5.029  0.00  0.00    -0.351 OA
ENDBRANCH  16  18
ENDBRANCH  15  16
ENDBRANCH  14  15
ENDBRANCH  13  14
ENDBRANCH   1  13
BRANCH   2  19
ATOM     19  O   UNL     1       1.258   4.428  -9.887  0.00  0.00    -0.376 OA
BRANCH  19  20
ATOM     20  C   UNL     1       0.190   4.635 -10.775  0.00  0.00    +0.259 C 
BRANCH  20  21
ATOM     21  C   UNL     1       0.435   5.744 -11.759  0.00  0.00    +0.159 C 
ATOM     22  N   UNL     1      -0.054   7.004 -11.220  0.00  0.00    -0.127 NA
ENDBRANCH  20  21
ENDBRANCH  19  20
ENDBRANCH   2  19
TORSDOF 10
ENDMDL
MODEL 2
REMARK VINA RESULT:      -6.3      1.467      2.117
REMARK  Name = 
REMARK  10 active torsions:
REMARK  status: ('A' for Active; 'I' for Inactive)
REMARK    1  A    between atoms: O_2  and  C_3
REMARK    2  A    between atoms: C_3  and  C_4
REMARK    3  A    between atoms: C_4  and  C_5
REMARK    4  A    between atoms: C_5  and  C_6
REMARK    5  A    between atoms: C_6  and  C_7
REMARK    6  A    between atoms: C_7  and  C_13
REMARK    7  A    between atoms: N_8  and  O_9
REMARK    8  A    between atoms: O_9  and  C_10
REMARK    9  A    between atoms: C_10  and  C_11
REMARK   10  A    between atoms: C_16  and  C_17
REMARK                            x       y       z     vdW  Elec       q    Type
REMARK                         _______ _______ _______ _____ _____    ______ ____
ROOT
ATOM      1  C   UNL     1       2.013   5.967  -8.666  0.00  0.00    +0.097 C 
ATOM      2  N   UNL     1       1.077   5.169  -9.087  0.00  0.00    -0.087 NA
ENDROOT
BRANCH   1   3
ATOM      3  C   UNL     1       3.340   5.736  -9.249  0.00  0.00    +0.017 A 
ATOM      4  C   UNL     1       4.319   5.308  -8.362  0.00  0.00    +0.001 A 
ATOM      5  C   UNL     1       5.591   5.115  -8.855  0.00  0.00    +0.004 A 
ATOM      6  C   UNL     1       6.063   6.081  -9.730  0.00  0.00    +0.071 A 
ATOM      7  C   UNL     1       5.151   6.783 -10.479  0.00  0.00    +0.004 A 
ATOM      8  C   UNL     1       3.797   6.540 -10.285  0.00  0.00    +0.001 A 
BRANCH   6   9
ATOM      9  C   UNL     1       7.518   6.048 -10.034  0.00  0.00    +0.419 C 
ATOM     10  F   UNL     1       8.095   5.091  -9.223  0.00  0.00    -0.166 F 
ATOM     11  F   UNL     1       7.672   5.603 -11.339  0.00  0.00    -0.166 F 
ATOM     12  F   UNL     1       8.073   7.296  -9.865  0.00  0.00    -0.166 F 
ENDBRANCH   6   9
ENDBRANCH   1   3
BRANCH   1  13
ATOM     13  C   UNL     1       1.746   7.182  -7.864  0.00  0.00    +0.049 C 
BRANCH  13  14
ATOM     14  C   UNL     1       1.816   6.940  -6.382  0.00  0.00    +0.009 C 
BRANCH  14  15
ATOM     15  C   UNL     1       0.416   6.857  -5.855  0.00  0.00    +0.032 C 
BRANCH  15  16
ATOM     16  C   UNL     1      -0.080   5.460  -5.637  0.00  0.00    +0.142 C 
BRANCH  16  18
ATOM     17  C   UNL     1      -2.281   5.772  -6.294  0.00  0.00    +0.174 C 
ATOM     18  O   UNL     1      -1.092   5.078  -6.496  0.00  0.00    -0.351 OA
ENDBRANCH  16  18
ENDBRANCH  15  16
ENDBRANCH  14  15
ENDBRANCH  13  14
ENDBRANCH   1  13
BRANCH   2  19
ATOM     19  O   UNL     1       1.033   4.707 -10.385  0.00  0.00    -0.376 OA
BRANCH  19  20
ATOM     20  C   UNL     1       0.100   5.137 -11.342  0.00  0.00    +0.259 C 
BRANCH  20  21
ATOM     21  C   UNL     1       0.440   6.466 -11.955  0.00  0.00    +0.159 C 
ATOM     22  N   UNL     1      -0.477   7.487 -11.470  0.00  0.00    -0.127 NA
ENDBRANCH  20  21
ENDBRANCH  19  20
ENDBRANCH   2  19
TORSDOF 10
ENDMDL
MODEL 3
REMARK VINA RESULT:      -6.3      1.977      4.651
REMARK  Name = 
REMARK  10 active torsions:
REMARK  status: ('A' for Active; 'I' for Inactive)
REMARK    1  A    between atoms: O_2  and  C_3
REMARK    2  A    between atoms: C_3  and  C_4
REMARK    3  A    between atoms: C_4  and  C_5
REMARK    4  A    between atoms: C_5  and  C_6
REMARK    5  A    between atoms: C_6  and  C_7
REMARK    6  A    between atoms: C_7  and  C_13
REMARK    7  A    between atoms: N_8  and  O_9
REMARK    8  A    between atoms: O_9  and  C_10
REMARK    9  A    between atoms: C_10  and  C_11
REMARK   10  A    between atoms: C_16  and  C_17
REMARK                            x       y       z     vdW  Elec       q    Type
REMARK                         _______ _______ _______ _____ _____    ______ ____
ROOT
ATOM      1  C   UNL     1       2.403   6.325  -8.295  0.00  0.00    +0.097 C 
ATOM      2  N   UNL     1       2.066   7.185  -7.381  0.00  0.00    -0.087 NA
ENDROOT
BRANCH   1   3
ATOM      3  C   UNL     1       3.798   6.408  -8.747  0.00  0.00    +0.017 A 
ATOM      4  C   UNL     1       3.978   6.770 -10.075  0.00  0.00    +0.001 A 
ATOM      5  C   UNL     1       5.268   6.824 -10.556  0.00  0.00    +0.004 A 
ATOM      6  C   UNL     1       6.108   5.789 -10.177  0.00  0.00    +0.071 A 
ATOM      7  C   UNL     1       5.860   5.152  -8.986  0.00  0.00    +0.004 A 
ATOM      8  C   UNL     1       4.749   5.529  -8.243  0.00  0.00    +0.001 A 
BRANCH   6   9
ATOM      9  C   UNL     1       7.394   5.673 -10.915  0.00  0.00    +0.419 C 
ATOM     10  F   UNL     1       7.870   6.950 -11.131  0.00  0.00    -0.166 F 
ATOM     11  F   UNL     1       8.309   5.047 -10.081  0.00  0.00    -0.166 F 
ATOM     12  F   UNL     1       7.216   4.965 -12.081  0.00  0.00    -0.166 F 
ENDBRANCH   6   9
ENDBRANCH   1   3
BRANCH   1  13
ATOM     13  C   UNL     1       1.556   5.175  -8.684  0.00  0.00    +0.049 C 
BRANCH  13  14
ATOM     14  C   UNL     1       0.130   5.560  -8.963  0.00  0.00    +0.009 C 
BRANCH  14  15
ATOM     15  C   UNL     1       0.040   6.026 -10.384  0.00  0.00    +0.032 C 
BRANCH  15  16
ATOM     16  C   UNL     1       0.487   5.013 -11.394  0.00  0.00    +0.142 C 
BRANCH  16  18
ATOM     17  C   UNL     1       1.233   6.711 -12.783  0.00  0.00    +0.174 C 
ATOM     18  O   UNL     1       1.486   5.457 -12.238  0.00  0.00    -0.351 OA
ENDBRANCH  16  18
ENDBRANCH  15  16
ENDBRANCH  14  15
ENDBRANCH  13  14
ENDBRANCH   1  13
BRANCH   2  19
ATOM     19  O   UNL     1       2.938   7.590  -6.394  0.00  0.00    -0.376 OA
BRANCH  19  20
ATOM     20  C   UNL     1       3.066   6.958  -5.147  0.00  0.00    +0.259 C 
BRANCH  20  21
ATOM     21  C   UNL     1       4.493   6.717  -4.741  0.00  0.00    +0.159 C 
ATOM     22  N   UNL     1       5.088   7.955  -4.261  0.00  0.00    -0.127 NA
ENDBRANCH  20  21
ENDBRANCH  19  20
ENDBRANCH   2  19
TORSDOF 10
ENDMDL
MODEL 4
REMARK VINA RESULT:      -6.2      3.216      5.263
REMARK  Name = 
REMARK  10 active torsions:
REMARK  status: ('A' for Active; 'I' for Inactive)
REMARK    1  A    between atoms: O_2  and  C_3
REMARK    2  A    between atoms: C_3  and  C_4
REMARK    3  A    between atoms: C_4  and  C_5
REMARK    4  A    between atoms: C_5  and  C_6
REMARK    5  A    between atoms: C_6  and  C_7
REMARK    6  A    between atoms: C_7  and  C_13
REMARK    7  A    between atoms: N_8  and  O_9
REMARK    8  A    between atoms: O_9  and  C_10
REMARK    9  A    between atoms: C_10  and  C_11
REMARK   10  A    between atoms: C_16  and  C_17
REMARK                            x       y       z     vdW  Elec       q    Type
REMARK                         _______ _______ _______ _____ _____    ______ ____
ROOT
ATOM      1  C   UNL     1       3.749   6.328 -10.976  0.00  0.00    +0.097 C 
ATOM      2  N   UNL     1       2.690   6.188 -11.716  0.00  0.00    -0.087 NA
ENDROOT
BRANCH   1   3
ATOM      3  C   UNL     1       3.543   6.101  -9.540  0.00  0.00    +0.017 A 
ATOM      4  C   UNL     1       3.083   7.195  -8.820  0.00  0.00    +0.001 A 
ATOM      5  C   UNL     1       2.912   7.042  -7.461  0.00  0.00    +0.004 A 
ATOM      6  C   UNL     1       3.911   6.355  -6.790  0.00  0.00    +0.071 A 
ATOM      7  C   UNL     1       4.640   5.422  -7.485  0.00  0.00    +0.004 A 
ATOM      8  C   UNL     1       4.388   5.249  -8.840  0.00  0.00    +0.001 A 
BRANCH   6   9
ATOM      9  C   UNL     1       3.892   6.438  -5.305  0.00  0.00    +0.419 C 
ATOM     10  F   UNL     1       4.770   5.490  -4.821  0.00  0.00    -0.166 F 
ATOM     11  F   UNL     1       4.404   7.674  -4.940  0.00  0.00    -0.166 F 
ATOM     12  F   UNL     1       2.610   6.270  -4.832  0.00  0.00    -0.166 F 
ENDBRANCH   6   9
ENDBRANCH   1   3
BRANCH   1  13
ATOM     13  C   UNL     1       5.117   6.450 -11.528  0.00  0.00    +0.049 C 
BRANCH  13  14
ATOM     14  C   UNL     1       5.824   7.701 -11.085  0.00  0.00    +0.009 C 
BRANCH  14  15
ATOM     15  C   UNL     1       7.255   7.356 -10.804  0.00  0.00    +0.032 C 
BRANCH  15  16
ATOM     16  C   UNL     1       7.493   5.905 -10.512  0.00  0.00    +0.142 C 
BRANCH  16  18
ATOM     17  C   UNL     1       8.708   5.924 -12.486  0.00  0.00    +0.174 C 
ATOM     18  O   UNL     1       8.529   5.345 -11.234  0.00  0.00    -0.351 OA
ENDBRANCH  16  18
ENDBRANCH  15  16
ENDBRANCH  14  15
ENDBRANCH  13  14
ENDBRANCH   1  13
BRANCH   2  19
ATOM     19  O   UNL     1       1.722   5.245 -11.444  0.00  0.00    -0.376 OA
BRANCH  19  20
ATOM     20  C   UNL     1       0.341   5.493 -11.508  0.00  0.00    +0.259 C 
BRANCH  20  21
ATOM     21  C   UNL     1      -0.173   6.322 -10.364  0.00  0.00    +0.159 C 
ATOM     22  N   UNL     1      -0.079   5.567  -9.123  0.00  0.00    -0.127 NA
ENDBRANCH  20  21
ENDBRANCH  19  20
ENDBRANCH   2  19
TORSDOF 10
ENDMDL
MODEL 5
REMARK VINA RESULT:      -6.2      3.789      5.229
REMARK  Name = 
REMARK  10 active torsions:
REMARK  status: ('A' for Active; 'I' for Inactive)
REMARK    1  A    between atoms: O_2  and  C_3
REMARK    2  A    between atoms: C_3  and  C_4
REMARK    3  A    between atoms: C_4  and  C_5
REMARK    4  A    between atoms: C_5  and  C_6
REMARK    5  A    between atoms: C_6  and  C_7
REMARK    6  A    between atoms: C_7  and  C_13
REMARK    7  A    between atoms: N_8  and  O_9
REMARK    8  A    between atoms: O_9  and  C_10
REMARK    9  A    between atoms: C_10  and  C_11
REMARK   10  A    between atoms: C_16  and  C_17
REMARK                            x       y       z     vdW  Elec       q    Type
REMARK                         _______ _______ _______ _____ _____    ______ ____
ROOT
ATOM      1  C   UNL     1      -0.862   5.256  -6.663  0.00  0.00    +0.097 C 
ATOM      2  N   UNL     1      -0.655   5.378  -7.940  0.00  0.00    -0.087 NA
ENDROOT
BRANCH   1   3
ATOM      3  C   UNL     1       0.349   5.188  -5.836  0.00  0.00    +0.017 A 
ATOM      4  C   UNL     1       0.899   6.410  -5.475  0.00  0.00    +0.001 A 
ATOM      5  C   UNL     1       2.059   6.398  -4.732  0.00  0.00    +0.004 A 
ATOM      6  C   UNL     1       3.025   5.482  -5.118  0.00  0.00    +0.071 A 
ATOM      7  C   UNL     1       2.618   4.333  -5.749  0.00  0.00    +0.004 A 
ATOM      8  C   UNL     1       1.268   4.164  -6.027  0.00  0.00    +0.001 A 
BRANCH   6   9
ATOM      9  C   UNL     1       4.378   5.656  -4.526  0.00  0.00    +0.419 C 
ATOM     10  F   UNL     1       5.042   6.610  -5.269  0.00  0.00    -0.166 F 
ATOM     11  F   UNL     1       4.223   6.185  -3.254  0.00  0.00    -0.166 F 
ATOM     12  F   UNL     1       5.043   4.451  -4.487  0.00  0.00    -0.166 F 
ENDBRANCH   6   9
ENDBRANCH   1   3
BRANCH   1  13
ATOM     13  C   UNL     1      -2.191   5.428  -6.034  0.00  0.00    +0.049 C 
BRANCH  13  14
ATOM     14  C   UNL     1      -2.407   6.807  -5.476  0.00  0.00    +0.009 C 
BRANCH  14  15
ATOM     15  C   UNL     1      -2.599   6.687  -3.995  0.00  0.00    +0.032 C 
BRANCH  15  16
ATOM     16  C   UNL     1      -3.115   5.354  -3.545  0.00  0.00    +0.142 C 
BRANCH  16  18
ATOM     17  C   UNL     1      -1.251   5.486  -2.175  0.00  0.00    +0.174 C 
ATOM     18  O   UNL     1      -2.431   4.813  -2.475  0.00  0.00    -0.351 OA
ENDBRANCH  16  18
ENDBRANCH  15  16
ENDBRANCH  14  15
ENDBRANCH  13  14
ENDBRANCH   1  13
BRANCH   2  19
ATOM     19  O   UNL     1       0.396   6.111  -8.448  0.00  0.00    -0.376 OA
BRANCH  19  20
ATOM     20  C   UNL     1       1.270   5.648  -9.445  0.00  0.00    +0.259 C 
BRANCH  20  21
ATOM     21  C   UNL     1       0.669   4.584 -10.321  0.00  0.00    +0.159 C 
ATOM     22  N   UNL     1      -0.082   5.199 -11.406  0.00  0.00    -0.127 NA
ENDBRANCH  20  21
ENDBRANCH  19  20
ENDBRANCH   2  19
TORSDOF 10
ENDMDL
MODEL 6
REMARK VINA RESULT:      -6.1      3.982      6.107
REMARK  Name = 
REMARK  10 active torsions:
REMARK  status: ('A' for Active; 'I' for Inactive)
REMARK    1  A    between atoms: O_2  and  C_3
REMARK    2  A    between atoms: C_3  and  C_4
REMARK    3  A    between atoms: C_4  and  C_5
REMARK    4  A    between atoms: C_5  and  C_6
REMARK    5  A    between atoms: C_6  and  C_7
REMARK    6  A    between atoms: C_7  and  C_13
REMARK    7  A    between atoms: N_8  and  O_9
REMARK    8  A    between atoms: O_9  and  C_10
REMARK    9  A    between atoms: C_10  and  C_11
REMARK   10  A    between atoms: C_16  and  C_17
REMARK                            x       y       z     vdW  Elec       q    Type
REMARK                         _______ _______ _______ _____ _____    ______ ____
ROOT
ATOM      1  C   UNL     1      -0.548   5.659  -6.438  0.00  0.00    +0.097 C 
ATOM      2  N   UNL     1      -1.607   6.155  -5.871  0.00  0.00    -0.087 NA
ENDROOT
BRANCH   1   3
ATOM      3  C   UNL     1       0.632   5.550  -5.571  0.00  0.00    +0.017 A 
ATOM      4  C   UNL     1       1.286   6.743  -5.294  0.00  0.00    +0.001 A 
ATOM      5  C   UNL     1       2.421   6.687  -4.516  0.00  0.00    +0.004 A 
ATOM      6  C   UNL     1       3.306   5.657  -4.795  0.00  0.00    +0.071 A 
ATOM      7  C   UNL     1       2.808   4.501  -5.342  0.00  0.00    +0.004 A 
ATOM      8  C   UNL     1       1.455   4.433  -5.648  0.00  0.00    +0.001 A 
BRANCH   6   9
ATOM      9  C   UNL     1       4.655   5.755  -4.176  0.00  0.00    +0.419 C 
ATOM     10  F   UNL     1       5.320   6.802  -4.782  0.00  0.00    -0.166 F 
ATOM     11  F   UNL     1       4.490   6.110  -2.846  0.00  0.00    -0.166 F 
ATOM     12  F   UNL     1       5.325   4.558  -4.294  0.00  0.00    -0.166 F 
ENDBRANCH   6   9
ENDBRANCH   1   3
BRANCH   1  13
ATOM     13  C   UNL     1      -0.565   5.007  -7.767  0.00  0.00    +0.049 C 
BRANCH  13  14
ATOM     14  C   UNL     1      -0.171   5.932  -8.884  0.00  0.00    +0.009 C 
BRANCH  14  15
ATOM     15  C   UNL     1       1.316   5.858  -9.051  0.00  0.00    +0.032 C 
BRANCH  15  16
ATOM     16  C   UNL     1       1.805   4.580  -9.663  0.00  0.00    +0.142 C 
BRANCH  16  18
ATOM     17  C   UNL     1       4.001   4.313  -8.973  0.00  0.00    +0.174 C 
ATOM     18  O   UNL     1       2.686   3.872  -8.869  0.00  0.00    -0.351 OA
ENDBRANCH  16  18
ENDBRANCH  15  16
ENDBRANCH  14  15
ENDBRANCH  13  14
ENDBRANCH   1  13
BRANCH   2  19
ATOM     19  O   UNL     1      -1.918   5.910  -4.551  0.00  0.00    -0.376 OA
BRANCH  19  20
ATOM     20  C   UNL     1      -2.519   6.849  -3.697  0.00  0.00    +0.259 C 
BRANCH  20  21
ATOM     21  C   UNL     1      -3.311   6.224  -2.582  0.00  0.00    +0.159 C 
ATOM     22  N   UNL     1      -2.735   4.936  -2.225  0.00  0.00    -0.127 NA
ENDBRANCH  20  21
ENDBRANCH  19  20
ENDBRANCH   2  19
TORSDOF 10
ENDMDL
MODEL 7
REMARK VINA RESULT:      -6.1      4.831      7.444
REMARK  Name = 
REMARK  10 active torsions:
REMARK  status: ('A' for Active; 'I' for Inactive)
REMARK    1  A    between atoms: O_2  and  C_3
REMARK    2  A    between atoms: C_3  and  C_4
REMARK    3  A    between atoms: C_4  and  C_5
REMARK    4  A    between atoms: C_5  and  C_6
REMARK    5  A    between atoms: C_6  and  C_7
REMARK    6  A    between atoms: C_7  and  C_13
REMARK    7  A    between atoms: N_8  and  O_9
REMARK    8  A    between atoms: O_9  and  C_10
REMARK    9  A    between atoms: C_10  and  C_11
REMARK   10  A    between atoms: C_16  and  C_17
REMARK                            x       y       z     vdW  Elec       q    Type
REMARK                         _______ _______ _______ _____ _____    ______ ____
ROOT
ATOM      1  C   UNL     1       0.827   5.595  -9.203  0.00  0.00    +0.097 C 
ATOM      2  N   UNL     1       1.530   4.564  -9.566  0.00  0.00    -0.087 NA
ENDROOT
BRANCH   1   3
ATOM      3  C   UNL     1       0.403   5.600  -7.798  0.00  0.00    +0.017 A 
ATOM      4  C   UNL     1      -0.951   5.385  -7.579  0.00  0.00    +0.001 A 
ATOM      5  C   UNL     1      -1.405   5.418  -6.279  0.00  0.00    +0.004 A 
ATOM      6  C   UNL     1      -0.899   6.431  -5.479  0.00  0.00    +0.071 A 
ATOM      7  C   UNL     1       0.346   6.931  -5.770  0.00  0.00    +0.004 A 
ATOM      8  C   UNL     1       1.018   6.447  -6.885  0.00  0.00    +0.001 A 
BRANCH   6   9
ATOM      9  C   UNL     1      -1.589   6.660  -4.181  0.00  0.00    +0.419 C 
ATOM     10  F   UNL     1      -2.575   5.703  -4.056  0.00  0.00    -0.166 F 
ATOM     11  F   UNL     1      -0.677   6.422  -3.164  0.00  0.00    -0.166 F 
ATOM     12  F   UNL     1      -2.081   7.944  -4.120  0.00  0.00    -0.166 F 
ENDBRANCH   6   9
ENDBRANCH   1   3
BRANCH   1  13
ATOM     13  C   UNL     1       0.669   6.807 -10.039  0.00  0.00    +0.049 C 
BRANCH  13  14
ATOM     14  C   UNL     1      -0.351   6.643 -11.131  0.00  0.00    +0.009 C 
BRANCH  14  15
ATOM     15  C   UNL     1       0.260   7.113 -12.416  0.00  0.00    +0.032 C 
BRANCH  15  16
ATOM     16  C   UNL     1       1.242   6.154 -13.019  0.00  0.00    +0.142 C 
BRANCH  16  18
ATOM     17  C   UNL     1       0.673   4.223 -14.165  0.00  0.00    +0.174 C 
ATOM     18  O   UNL     1       0.868   4.828 -12.928  0.00  0.00    -0.351 OA
ENDBRANCH  16  18
ENDBRANCH  15  16
ENDBRANCH  14  15
ENDBRANCH  13  14
ENDBRANCH   1  13
BRANCH   2  19
ATOM     19  O   UNL     1       2.430   3.952  -8.720  0.00  0.00    -0.376 OA
BRANCH  19  20
ATOM     20  C   UNL     1       3.824   4.091  -8.820  0.00  0.00    +0.259 C 
BRANCH  20  21
ATOM     21  C   UNL     1       4.322   5.448  -8.408  0.00  0.00    +0.159 C 
ATOM     22  N   UNL     1       4.565   5.473  -6.973  0.00  0.00    -0.127 NA
ENDBRANCH  20  21
ENDBRANCH  19  20
ENDBRANCH   2  19
TORSDOF 10
ENDMDL
MODEL 8
REMARK VINA RESULT:      -6.0      5.165      7.744
REMARK  Name = 
REMARK  10 active torsions:
REMARK  status: ('A' for Active; 'I' for Inactive)
REMARK    1  A    between atoms: O_2  and  C_3
REMARK    2  A    between atoms: C_3  and  C_4
REMARK    3  A    between atoms: C_4  and  C_5
REMARK    4  A    between atoms: C_5  and  C_6
REMARK    5  A    between atoms: C_6  and  C_7
REMARK    6  A    between atoms: C_7  and  C_13
REMARK    7  A    between atoms: N_8  and  O_9
REMARK    8  A    between atoms: O_9  and  C_10
REMARK    9  A    between atoms: C_10  and  C_11
REMARK   10  A    between atoms: C_16  and  C_17
REMARK                            x       y       z     vdW  Elec       q    Type
REMARK                         _______ _______ _______ _____ _____    ______ ____
ROOT
ATOM      1  C   UNL     1       3.164   5.543  -5.135  0.00  0.00    +0.097 C 
ATOM      2  N   UNL     1       3.830   4.941  -4.195  0.00  0.00    -0.087 NA
ENDROOT
BRANCH   1   3
ATOM      3  C   UNL     1       1.710   5.584  -4.943  0.00  0.00    +0.017 A 
ATOM      4  C   UNL     1       0.959   4.914  -5.900  0.00  0.00    +0.001 A 
ATOM      5  C   UNL     1      -0.414   4.957  -5.784  0.00  0.00    +0.004 A 
ATOM      6  C   UNL     1      -0.963   6.185  -5.451  0.00  0.00    +0.071 A 
ATOM      7  C   UNL     1      -0.200   7.066  -4.726  0.00  0.00    +0.004 A 
ATOM      8  C   UNL     1       1.107   6.716  -4.410  0.00  0.00    +0.001 A 
BRANCH   6   9
ATOM      9  C   UNL     1      -2.436   6.319  -5.611  0.00  0.00    +0.419 C 
ATOM     10  F   UNL     1      -2.779   5.754  -6.823  0.00  0.00    -0.166 F 
ATOM     11  F   UNL     1      -3.044   5.549  -4.631  0.00  0.00    -0.166 F 
ATOM     12  F   UNL     1      -2.811   7.639  -5.512  0.00  0.00    -0.166 F 
ENDBRANCH   6   9
ENDBRANCH   1   3
BRANCH   1  13
ATOM     13  C   UNL     1       3.805   6.356  -6.193  0.00  0.00    +0.049 C 
BRANCH  13  14
ATOM     14  C   UNL     1       4.716   5.558  -7.083  0.00  0.00    +0.009 C 
BRANCH  14  15
ATOM     15  C   UNL     1       4.175   5.615  -8.479  0.00  0.00    +0.032 C 
BRANCH  15  16
ATOM     16  C   UNL     1       3.869   4.276  -9.077  0.00  0.00    +0.142 C 
BRANCH  16  18
ATOM     17  C   UNL     1       1.622   4.636  -9.513  0.00  0.00    +0.174 C 
ATOM     18  O   UNL     1       2.571   3.847  -8.873  0.00  0.00    -0.351 OA
ENDBRANCH  16  18
ENDBRANCH  15  16
ENDBRANCH  14  15
ENDBRANCH  13  14
ENDBRANCH   1  13
BRANCH   2  19
ATOM     19  O   UNL     1       3.454   5.005  -2.870  0.00  0.00    -0.376 OA
BRANCH  19  20
ATOM     20  C   UNL     1       4.011   5.892  -1.936  0.00  0.00    +0.259 C 
BRANCH  20  21
ATOM     21  C   UNL     1       4.701   7.070  -2.565  0.00  0.00    +0.159 C 
ATOM     22  N   UNL     1       3.839   8.241  -2.505  0.00  0.00    -0.127 NA
ENDBRANCH  20  21
ENDBRANCH  19  20
ENDBRANCH   2  19
TORSDOF 10
ENDMDL
MODEL 9
REMARK VINA RESULT:      -5.9      4.199      6.257
REMARK  Name = 
REMARK  10 active torsions:
REMARK  status: ('A' for Active; 'I' for Inactive)
REMARK    1  A    between atoms: O_2  and  C_3
REMARK    2  A    between atoms: C_3  and  C_4
REMARK    3  A    between atoms: C_4  and  C_5
REMARK    4  A    between atoms: C_5  and  C_6
REMARK    5  A    between atoms: C_6  and  C_7
REMARK    6  A    between atoms: C_7  and  C_13
REMARK    7  A    between atoms: N_8  and  O_9
REMARK    8  A    between atoms: O_9  and  C_10
REMARK    9  A    between atoms: C_10  and  C_11
REMARK   10  A    between atoms: C_16  and  C_17
REMARK                            x       y       z     vdW  Elec       q    Type
REMARK                         _______ _______ _______ _____ _____    ______ ____
ROOT
ATOM      1  C   UNL     1       1.198   6.667  -5.591  0.00  0.00    +0.097 C 
ATOM      2  N   UNL     1       2.377   6.937  -5.115  0.00  0.00    -0.087 NA
ENDROOT
BRANCH   1   3
ATOM      3  C   UNL     1       1.173   6.248  -6.998  0.00  0.00    +0.017 A 
ATOM      4  C   UNL     1       1.624   7.189  -7.913  0.00  0.00    +0.001 A 
ATOM      5  C   UNL     1       1.584   6.856  -9.249  0.00  0.00    +0.004 A 
ATOM      6  C   UNL     1       0.439   6.208  -9.685  0.00  0.00    +0.071 A 
ATOM      7  C   UNL     1      -0.266   5.451  -8.782  0.00  0.00    +0.004 A 
ATOM      8  C   UNL     1       0.161   5.416  -7.461  0.00  0.00    +0.001 A 
BRANCH   6   9
ATOM      9  C   UNL     1       0.252   6.108 -11.158  0.00  0.00    +0.419 C 
ATOM     10  F   UNL     1      -0.066   4.798 -11.453  0.00  0.00    -0.166 F 
ATOM     11  F   UNL     1      -0.856   6.869 -11.500  0.00  0.00    -0.166 F 
ATOM     12  F   UNL     1       1.379   6.546 -11.815  0.00  0.00    -0.166 F 
ENDBRANCH   6   9
ENDBRANCH   1   3
BRANCH   1  13
ATOM     13  C   UNL     1      -0.010   6.533  -4.747  0.00  0.00    +0.049 C 
BRANCH  13  14
ATOM     14  C   UNL     1      -0.969   7.680  -4.899  0.00  0.00    +0.009 C 
BRANCH  14  15
ATOM     15  C   UNL     1      -2.364   7.136  -4.842  0.00  0.00    +0.032 C 
BRANCH  15  16
ATOM     16  C   UNL     1      -2.439   5.646  -4.703  0.00  0.00    +0.142 C 
BRANCH  16  18
ATOM     17  C   UNL     1      -3.580   6.240  -2.776  0.00  0.00    +0.174 C 
ATOM     18  O   UNL     1      -3.005   5.215  -3.519  0.00  0.00    -0.351 OA
ENDBRANCH  16  18
ENDBRANCH  15  16
ENDBRANCH  14  15
ENDBRANCH  13  14
ENDBRANCH   1  13
BRANCH   2  19
ATOM     19  O   UNL     1       3.502   6.240  -5.498  0.00  0.00    -0.376 OA
BRANCH  19  20
ATOM     20  C   UNL     1       4.693   6.197  -4.755  0.00  0.00    +0.259 C 
BRANCH  20  21
ATOM     21  C   UNL     1       4.886   4.906  -4.009  0.00  0.00    +0.159 C 
ATOM     22  N   UNL     1       4.093   4.915  -2.788  0.00  0.00    -0.127 NA
ENDBRANCH  20  21
ENDBRANCH  19  20
ENDBRANCH   2  19
TORSDOF 10
ENDMDL
