MODEL 1
REMARK VINA RESULT:      -5.3      0.000      0.000
REMARK  Name = 
REMARK  4 active torsions:
REMARK  status: ('A' for Active; 'I' for Inactive)
REMARK    1  A    between atoms: P_2  and  C_5
REMARK    2  A    between atoms: C_5  and  C_7
REMARK    3  A    between atoms: C_5  and  P_13
REMARK    4  A    between atoms: C_7  and  N_8
REMARK                            x       y       z     vdW  Elec       q    Type
REMARK                         _______ _______ _______ _____ _____    ______ ____
ROOT
ATOM      1  C   UNL     1       1.456   5.586  -8.131  0.00  0.00    +0.236 C 
ATOM      2  O   UNL     1       2.043   4.370  -8.430  0.00  0.00    -0.209 OA
ENDROOT
BRANCH   1   4
ATOM      3  O   UNL     1      -1.006   5.041  -7.214  0.00  0.00    -0.457 OA
ATOM      4  P   UNL     1       0.374   5.388  -6.675  0.00  0.00    +0.153 P 
ATOM      5  O   UNL     1       0.244   6.838  -5.813  0.00  0.00    -0.355 OA
ATOM      6  O   UNL     1       0.910   4.130  -5.681  0.00  0.00    -0.355 OA
ENDBRANCH   1   4
BRANCH   1   7
ATOM      7  P   UNL     1       2.729   6.816  -7.766  0.00  0.00    +0.153 P 
ATOM      8  O   UNL     1       2.134   8.392  -7.898  0.00  0.00    -0.355 OA
ATOM      9  O   UNL     1       3.385   6.582  -6.238  0.00  0.00    -0.355 OA
ATOM     10  O   UNL     1       3.854   6.675  -8.778  0.00  0.00    -0.457 OA
ENDBRANCH   1   7
BRANCH   1  11
ATOM     11  C   UNL     1       0.576   6.121  -9.223  0.00  0.00    +0.152 C 
BRANCH  11  12
ATOM     12  N   UNL     1       0.795   5.511 -10.504  0.00  0.00    -0.304 N 
ATOM     13  C   UNL     1       0.215   4.478 -11.120  0.00  0.00    +0.179 A 
ATOM     14  N   UNL     1       0.369   4.672 -12.450  0.00  0.00    -0.222 NA
ATOM     15  C   UNL     1       1.246   5.672 -12.671  0.00  0.00    +0.119 A 
ATOM     16  C   UNL     1       1.647   6.061 -11.401  0.00  0.00    +0.098 A 
ENDBRANCH  11  12
ENDBRANCH   1  11
TORSDOF 4
ENDMDL
MODEL 2
REMARK VINA RESULT:      -5.2      4.704      6.267
REMARK  Name = 
REMARK  4 active torsions:
REMARK  status: ('A' for Active; 'I' for Inactive)
REMARK    1  A    between atoms: P_2  and  C_5
REMARK    2  A    between atoms: C_5  and  C_7
REMARK    3  A    between atoms: C_5  and  P_13
REMARK    4  A    between atoms: C_7  and  N_8
REMARK                            x       y       z     vdW  Elec       q    Type
REMARK                         _______ _______ _______ _____ _____    ______ ____
ROOT
ATOM      1  C   UNL     1       0.920   6.111  -4.852  0.00  0.00    +0.236 C 
ATOM      2  O   UNL     1       0.136   7.249  -4.901  0.00  0.00    -0.209 OA
ENDROOT
BRANCH   1   4
ATOM      3  O   UNL     1       1.139   3.711  -6.033  0.00  0.00    -0.457 OA
ATOM      4  P   UNL     1       0.609   5.104  -6.342  0.00  0.00    +0.153 P 
ATOM      5  O   UNL     1       1.470   5.703  -7.670  0.00  0.00    -0.355 OA
ATOM      6  O   UNL     1      -1.044   5.003  -6.678  0.00  0.00    -0.355 OA
ENDBRANCH   1   4
BRANCH   1   7
ATOM      7  P   UNL     1       2.669   6.564  -4.792  0.00  0.00    +0.153 P 
ATOM      8  O   UNL     1       3.666   5.203  -4.707  0.00  0.00    -0.355 OA
ATOM      9  O   UNL     1       3.102   7.505  -6.114  0.00  0.00    -0.355 OA
ATOM     10  O   UNL     1       2.922   7.385  -3.538  0.00  0.00    -0.457 OA
ENDBRANCH   1   7
BRANCH   1  11
ATOM     11  C   UNL     1       0.620   5.215  -3.686  0.00  0.00    +0.152 C 
BRANCH  11  12
ATOM     12  N   UNL     1      -0.607   5.527  -3.008  0.00  0.00    -0.304 N 
ATOM     13  C   UNL     1      -1.883   5.254  -3.285  0.00  0.00    +0.179 A 
ATOM     14  N   UNL     1      -2.555   5.255  -2.111  0.00  0.00    -0.222 NA
ATOM     15  C   UNL     1      -1.775   5.765  -1.135  0.00  0.00    +0.119 A 
ATOM     16  C   UNL     1      -0.598   6.108  -1.784  0.00  0.00    +0.098 A 
ENDBRANCH  11  12
ENDBRANCH   1  11
TORSDOF 4
ENDMDL
MODEL 3
REMARK VINA RESULT:      -5.2      3.465      4.229
REMARK  Name = 
REMARK  4 active torsions:
REMARK  status: ('A' for Active; 'I' for Inactive)
REMARK    1  A    between atoms: P_2  and  C_5
REMARK    2  A    between atoms: C_5  and  C_7
REMARK    3  A    between atoms: C_5  and  P_13
REMARK    4  A    between atoms: C_7  and  N_8
REMARK                            x       y       z     vdW  Elec       q    Type
REMARK                         _______ _______ _______ _____ _____    ______ ____
ROOT
ATOM      1  C   UNL     1       2.945   5.801  -9.481  0.00  0.00    +0.236 C 
ATOM      2  O   UNL     1       3.360   4.496  -9.288  0.00  0.00    -0.209 OA
ENDROOT
BRANCH   1   4
ATOM      3  O   UNL     1       2.103   5.894 -12.027  0.00  0.00    -0.457 OA
ATOM      4  P   UNL     1       1.522   5.816 -10.622  0.00  0.00    +0.153 P 
ATOM      5  O   UNL     1       0.564   7.189 -10.382  0.00  0.00    -0.355 OA
ATOM      6  O   UNL     1       0.611   4.399 -10.482  0.00  0.00    -0.355 OA
ENDBRANCH   1   4
BRANCH   1   7
ATOM      7  P   UNL     1       2.453   6.535  -7.904  0.00  0.00    +0.153 P 
ATOM      8  O   UNL     1       2.318   8.216  -8.009  0.00  0.00    -0.355 OA
ATOM      9  O   UNL     1       1.007   5.882  -7.351  0.00  0.00    -0.355 OA
ATOM     10  O   UNL     1       3.522   6.234  -6.866  0.00  0.00    -0.457 OA
ENDBRANCH   1   7
BRANCH   1  11
ATOM     11  C   UNL     1       3.983   6.683 -10.112  0.00  0.00    +0.152 C 
BRANCH  11  12
ATOM     12  N   UNL     1       5.177   5.992 -10.507  0.00  0.00    -0.304 N 
ATOM     13  C   UNL     1       5.568   5.460 -11.667  0.00  0.00    +0.179 A 
ATOM     14  N   UNL     1       6.921   5.455 -11.666  0.00  0.00    -0.222 NA
ATOM     15  C   UNL     1       7.382   5.742 -10.432  0.00  0.00    +0.119 A 
ATOM     16  C   UNL     1       6.235   5.892  -9.666  0.00  0.00    +0.098 A 
ENDBRANCH  11  12
ENDBRANCH   1  11
TORSDOF 4
ENDMDL
MODEL 4
REMARK VINA RESULT:      -5.1      3.303      4.478
REMARK  Name = 
REMARK  4 active torsions:
REMARK  status: ('A' for Active; 'I' for Inactive)
REMARK    1  A    between atoms: P_2  and  C_5
REMARK    2  A    between atoms: C_5  and  C_7
REMARK    3  A    between atoms: C_5  and  P_13
REMARK    4  A    between atoms: C_7  and  N_8
REMARK                            x       y       z     vdW  Elec       q    Type
REMARK                         _______ _______ _______ _____ _____    ______ ____
ROOT
ATOM      1  C   UNL     1       2.032   5.105  -7.150  0.00  0.00    +0.236 C 
ATOM      2  O   UNL     1       1.719   3.865  -6.622  0.00  0.00    -0.209 OA
ENDROOT
BRANCH   1   4
ATOM      3  O   UNL     1       3.102   5.424  -4.710  0.00  0.00    -0.457 OA
ATOM      4  P   UNL     1       3.348   5.871  -6.145  0.00  0.00    +0.153 P 
ATOM      5  O   UNL     1       3.241   7.558  -6.187  0.00  0.00    -0.355 OA
ATOM      6  O   UNL     1       4.877   5.340  -6.632  0.00  0.00    -0.355 OA
ENDBRANCH   1   4
BRANCH   1   7
ATOM      7  P   UNL     1       2.611   4.925  -8.854  0.00  0.00    +0.153 P 
ATOM      8  O   UNL     1       1.343   4.570  -9.912  0.00  0.00    -0.355 OA
ATOM      9  O   UNL     1       3.416   6.304  -9.374  0.00  0.00    -0.355 OA
ATOM     10  O   UNL     1       3.590   3.765  -8.921  0.00  0.00    -0.457 OA
ENDBRANCH   1   7
BRANCH   1  11
ATOM     11  C   UNL     1       0.890   6.078  -7.137  0.00  0.00    +0.152 C 
BRANCH  11  12
ATOM     12  N   UNL     1      -0.227   5.659  -6.338  0.00  0.00    -0.304 N 
ATOM     13  C   UNL     1      -0.466   5.712  -5.025  0.00  0.00    +0.179 A 
ATOM     14  N   UNL     1      -1.809   5.731  -4.866  0.00  0.00    -0.222 NA
ATOM     15  C   UNL     1      -2.416   5.442  -6.035  0.00  0.00    +0.119 A 
ATOM     16  C   UNL     1      -1.368   5.212  -6.915  0.00  0.00    +0.098 A 
ENDBRANCH  11  12
ENDBRANCH   1  11
TORSDOF 4
ENDMDL
MODEL 5
REMARK VINA RESULT:      -5.1      4.114      5.442
REMARK  Name = 
REMARK  4 active torsions:
REMARK  status: ('A' for Active; 'I' for Inactive)
REMARK    1  A    between atoms: P_2  and  C_5
REMARK    2  A    between atoms: C_5  and  C_7
REMARK    3  A    between atoms: C_5  and  P_13
REMARK    4  A    between atoms: C_7  and  N_8
REMARK                            x       y       z     vdW  Elec       q    Type
REMARK                         _______ _______ _______ _____ _____    ______ ____
ROOT
ATOM      1  C   UNL     1       1.692   5.831  -5.626  0.00  0.00    +0.236 C 
ATOM      2  O   UNL     1       1.436   4.473  -5.597  0.00  0.00    -0.209 OA
ENDROOT
BRANCH   1   4
ATOM      3  O   UNL     1       2.854   6.413  -3.279  0.00  0.00    -0.457 OA
ATOM      4  P   UNL     1       3.245   6.169  -4.730  0.00  0.00    +0.153 P 
ATOM      5  O   UNL     1       3.987   7.574  -5.309  0.00  0.00    -0.355 OA
ATOM      6  O   UNL     1       4.293   4.846  -4.804  0.00  0.00    -0.355 OA
ENDBRANCH   1   4
BRANCH   1   7
ATOM      7  P   UNL     1       1.855   6.394  -7.337  0.00  0.00    +0.153 P 
ATOM      8  O   UNL     1       1.856   8.080  -7.444  0.00  0.00    -0.355 OA
ATOM      9  O   UNL     1       3.244   5.778  -8.053  0.00  0.00    -0.355 OA
ATOM     10  O   UNL     1       0.663   5.894  -8.136  0.00  0.00    -0.457 OA
ENDBRANCH   1   7
BRANCH   1  11
ATOM     11  C   UNL     1       0.641   6.663  -4.950  0.00  0.00    +0.152 C 
BRANCH  11  12
ATOM     12  N   UNL     1      -0.375   5.897  -4.286  0.00  0.00    -0.304 N 
ATOM     13  C   UNL     1      -0.431   5.333  -3.077  0.00  0.00    +0.179 A 
ATOM     14  N   UNL     1      -1.739   5.245  -2.741  0.00  0.00    -0.222 NA
ATOM     15  C   UNL     1      -2.510   5.513  -3.814  0.00  0.00    +0.119 A 
ATOM     16  C   UNL     1      -1.601   5.740  -4.838  0.00  0.00    +0.098 A 
ENDBRANCH  11  12
ENDBRANCH   1  11
TORSDOF 4
ENDMDL
MODEL 6
REMARK VINA RESULT:      -5.1      3.935      5.866
REMARK  Name = 
REMARK  4 active torsions:
REMARK  status: ('A' for Active; 'I' for Inactive)
REMARK    1  A    between atoms: P_2  and  C_5
REMARK    2  A    between atoms: C_5  and  C_7
REMARK    3  A    between atoms: C_5  and  P_13
REMARK    4  A    between atoms: C_7  and  N_8
REMARK                            x       y       z     vdW  Elec       q    Type
REMARK                         _______ _______ _______ _____ _____    ______ ____
ROOT
ATOM      1  C   UNL     1       3.060   5.797  -6.879  0.00  0.00    +0.236 C 
ATOM      2  O   UNL     1       2.626   4.664  -6.215  0.00  0.00    -0.209 OA
ENDROOT
BRANCH   1   4
ATOM      3  O   UNL     1       5.457   5.130  -7.886  0.00  0.00    -0.457 OA
ATOM      4  P   UNL     1       4.017   5.300  -8.351  0.00  0.00    +0.153 P 
ATOM      5  O   UNL     1       3.994   6.513  -9.530  0.00  0.00    -0.355 OA
ATOM      6  O   UNL     1       3.462   3.829  -8.973  0.00  0.00    -0.355 OA
ENDBRANCH   1   4
BRANCH   1   7
ATOM      7  P   UNL     1       1.643   6.793  -7.397  0.00  0.00    +0.153 P 
ATOM      8  O   UNL     1       2.099   8.368  -7.804  0.00  0.00    -0.355 OA
ATOM      9  O   UNL     1       0.837   6.084  -8.689  0.00  0.00    -0.355 OA
ATOM     10  O   UNL     1       0.663   6.893  -6.240  0.00  0.00    -0.457 OA
ENDBRANCH   1   7
BRANCH   1  11
ATOM     11  C   UNL     1       3.980   6.663  -6.069  0.00  0.00    +0.152 C 
BRANCH  11  12
ATOM     12  N   UNL     1       3.918   6.420  -4.655  0.00  0.00    -0.304 N 
ATOM     13  C   UNL     1       3.059   6.811  -3.711  0.00  0.00    +0.179 A 
ATOM     14  N   UNL     1       3.110   5.890  -2.722  0.00  0.00    -0.222 NA
ATOM     15  C   UNL     1       4.160   5.066  -2.913  0.00  0.00    +0.119 A 
ATOM     16  C   UNL     1       4.771   5.553  -4.060  0.00  0.00    +0.098 A 
ENDBRANCH  11  12
ENDBRANCH   1  11
TORSDOF 4
ENDMDL
MODEL 7
REMARK VINA RESULT:      -5.0      3.833      5.540
REMARK  Name = 
REMARK  4 active torsions:
REMARK  status: ('A' for Active; 'I' for Inactive)
REMARK    1  A    between atoms: P_2  and  C_5
REMARK    2  A    between atoms: C_5  and  C_7
REMARK    3  A    between atoms: C_5  and  P_13
REMARK    4  A    between atoms: C_7  and  N_8
REMARK                            x       y       z     vdW  Elec       q    Type
REMARK                         _______ _______ _______ _____ _____    ______ ____
ROOT
ATOM      1  C   UNL     1       2.790   6.221  -6.990  0.00  0.00    +0.236 C 
ATOM      2  O   UNL     1       2.762   7.599  -7.107  0.00  0.00    -0.209 OA
ENDROOT
BRANCH   1   4
ATOM      3  O   UNL     1       0.284   6.611  -6.115  0.00  0.00    -0.457 OA
ATOM      4  P   UNL     1       1.080   5.590  -6.915  0.00  0.00    +0.153 P 
ATOM      5  O   UNL     1       1.011   4.116  -6.088  0.00  0.00    -0.355 OA
ATOM      6  O   UNL     1       0.409   5.458  -8.461  0.00  0.00    -0.355 OA
ENDBRANCH   1   4
BRANCH   1   7
ATOM      7  P   UNL     1       3.633   5.495  -8.415  0.00  0.00    +0.153 P 
ATOM      8  O   UNL     1       3.181   3.885  -8.657  0.00  0.00    -0.355 OA
ATOM      9  O   UNL     1       3.345   6.382  -9.812  0.00  0.00    -0.355 OA
ATOM     10  O   UNL     1       5.131   5.508  -8.161  0.00  0.00    -0.457 OA
ENDBRANCH   1   7
BRANCH   1  11
ATOM     11  C   UNL     1       3.461   5.730  -5.740  0.00  0.00    +0.152 C 
BRANCH  11  12
ATOM     12  N   UNL     1       3.606   6.731  -4.721  0.00  0.00    -0.304 N 
ATOM     13  C   UNL     1       2.802   7.134  -3.735  0.00  0.00    +0.179 A 
ATOM     14  N   UNL     1       3.591   7.651  -2.765  0.00  0.00    -0.222 NA
ATOM     15  C   UNL     1       4.848   7.806  -3.228  0.00  0.00    +0.119 A 
ATOM     16  C   UNL     1       4.779   7.384  -4.549  0.00  0.00    +0.098 A 
ENDBRANCH  11  12
ENDBRANCH   1  11
TORSDOF 4
ENDMDL
MODEL 8
REMARK VINA RESULT:      -4.9      3.675      4.866
REMARK  Name = 
REMARK  4 active torsions:
REMARK  status: ('A' for Active; 'I' for Inactive)
REMARK    1  A    between atoms: P_2  and  C_5
REMARK    2  A    between atoms: C_5  and  C_7
REMARK    3  A    between atoms: C_5  and  P_13
REMARK    4  A    between atoms: C_7  and  N_8
REMARK                            x       y       z     vdW  Elec       q    Type
REMARK                         _______ _______ _______ _____ _____    ______ ____
ROOT
ATOM      1  C   UNL     1       1.955   5.941  -6.045  0.00  0.00    +0.236 C 
ATOM      2  O   UNL     1       1.443   7.196  -6.322  0.00  0.00    -0.209 OA
ENDROOT
BRANCH   1   4
ATOM      3  O   UNL     1       2.003   5.911  -8.727  0.00  0.00    -0.457 OA
ATOM      4  P   UNL     1       2.721   5.258  -7.554  0.00  0.00    +0.153 P 
ATOM      5  O   UNL     1       2.473   3.589  -7.659  0.00  0.00    -0.355 OA
ATOM      6  O   UNL     1       4.365   5.641  -7.632  0.00  0.00    -0.355 OA
ENDBRANCH   1   4
BRANCH   1   7
ATOM      7  P   UNL     1       3.203   6.055  -4.742  0.00  0.00    +0.153 P 
ATOM      8  O   UNL     1       4.086   4.622  -4.593  0.00  0.00    -0.355 OA
ATOM      9  O   UNL     1       4.248   7.343  -5.007  0.00  0.00    -0.355 OA
ATOM     10  O   UNL     1       2.505   6.293  -3.412  0.00  0.00    -0.457 OA
ENDBRANCH   1   7
BRANCH   1  11
ATOM     11  C   UNL     1       0.919   4.940  -5.625  0.00  0.00    +0.152 C 
BRANCH  11  12
ATOM     12  N   UNL     1      -0.433   5.402  -5.767  0.00  0.00    -0.304 N 
ATOM     13  C   UNL     1      -1.289   5.383  -6.792  0.00  0.00    +0.179 A 
ATOM     14  N   UNL     1      -2.536   5.399  -6.268  0.00  0.00    -0.222 NA
ATOM     15  C   UNL     1      -2.479   5.677  -4.950  0.00  0.00    +0.119 A 
ATOM     16  C   UNL     1      -1.127   5.863  -4.699  0.00  0.00    +0.098 A 
ENDBRANCH  11  12
ENDBRANCH   1  11
TORSDOF 4
ENDMDL
MODEL 9
REMARK VINA RESULT:      -4.9      4.518      5.812
REMARK  Name = 
REMARK  4 active torsions:
REMARK  status: ('A' for Active; 'I' for Inactive)
REMARK    1  A    between atoms: P_2  and  C_5
REMARK    2  A    between atoms: C_5  and  C_7
REMARK    3  A    between atoms: C_5  and  P_13
REMARK    4  A    between atoms: C_7  and  N_8
REMARK                            x       y       z     vdW  Elec       q    Type
REMARK                         _______ _______ _______ _____ _____    ______ ____
ROOT
ATOM      1  C   UNL     1      -0.603   5.778  -4.427  0.00  0.00    +0.236 C 
ATOM      2  O   UNL     1       0.106   4.647  -4.788  0.00  0.00    -0.209 OA
ENDROOT
BRANCH   1   4
ATOM      3  O   UNL     1      -1.453   5.925  -6.968  0.00  0.00    -0.457 OA
ATOM      4  P   UNL     1      -2.022   5.983  -5.557  0.00  0.00    +0.153 P 
ATOM      5  O   UNL     1      -2.747   7.497  -5.353  0.00  0.00    -0.355 OA
ATOM      6  O   UNL     1      -3.143   4.733  -5.362  0.00  0.00    -0.355 OA
ENDBRANCH   1   4
BRANCH   1   7
ATOM      7  P   UNL     1      -1.210   5.614  -2.731  0.00  0.00    +0.153 P 
ATOM      8  O   UNL     1      -1.480   7.120  -2.014  0.00  0.00    -0.355 OA
ATOM      9  O   UNL     1      -2.615   4.696  -2.671  0.00  0.00    -0.355 OA
ATOM     10  O   UNL     1      -0.156   4.902  -1.899  0.00  0.00    -0.457 OA
ENDBRANCH   1   7
BRANCH   1  11
ATOM     11  C   UNL     1       0.186   7.050  -4.529  0.00  0.00    +0.152 C 
BRANCH  11  12
ATOM     12  N   UNL     1       1.501   6.881  -5.079  0.00  0.00    -0.304 N 
ATOM     13  C   UNL     1       1.966   6.929  -6.330  0.00  0.00    +0.179 A 
ATOM     14  N   UNL     1       3.273   7.270  -6.254  0.00  0.00    -0.222 NA
ATOM     15  C   UNL     1       3.696   7.194  -4.976  0.00  0.00    +0.119 A 
ATOM     16  C   UNL     1       2.583   6.756  -4.274  0.00  0.00    +0.098 A 
ENDBRANCH  11  12
ENDBRANCH   1  11
TORSDOF 4
ENDMDL
