MODEL 1
REMARK VINA RESULT:      -7.6      0.000      0.000
REMARK  Name = 
REMARK  1 active torsions:
REMARK  status: ('A' for Active; 'I' for Inactive)
REMARK    1  A    between atoms: O_2  and  C_3
REMARK                            x       y       z     vdW  Elec       q    Type
REMARK                         _______ _______ _______ _____ _____    ______ ____
ROOT
ATOM      1  C   UNL     1       3.781   5.473  -5.135  0.00  0.00    +0.138 A 
ATOM      2  C   UNL     1       4.208   5.205  -6.421  0.00  0.00    +0.032 A 
ATOM      3  C   UNL     1       3.920   6.043  -7.501  0.00  0.00    -0.024 A 
ATOM      4  C   UNL     1       4.127   5.463  -8.736  0.00  0.00    +0.021 C 
ATOM      5  C   UNL     1       3.653   4.008  -8.754  0.00  0.00    +0.021 C 
ATOM      6  C   UNL     1       2.155   4.170  -9.008  0.00  0.00    +0.072 C 
ATOM      7  N   UNL     1       1.678   5.392  -8.436  0.00  0.00    -0.272 NA
ATOM      8  C   UNL     1       0.221   5.290  -8.450  0.00  0.00    +0.090 C 
ATOM      9  C   UNL     1       1.915   6.551  -9.459  0.00  0.00    +0.062 C 
ATOM     10  C   UNL     1       2.521   7.649  -8.420  0.00  0.00    +0.042 C 
ATOM     11  C   UNL     1       3.394   5.938 -10.068  0.00  0.00    +0.019 C 
ATOM     12  C   UNL     1       4.162   7.372 -10.151  0.00  0.00    +0.002 C 
ATOM     13  C   UNL     1       5.331   6.991 -11.057  0.00  0.00    +0.000 C 
ATOM     14  C   UNL     1       5.825   5.636 -10.565  0.00  0.00    +0.000 C 
ATOM     15  C   UNL     1       5.588   5.508  -9.091  0.00  0.00    +0.004 C 
ATOM     16  C   UNL     1       2.972   7.015  -7.209  0.00  0.00    -0.025 A 
ATOM     17  C   UNL     1       2.374   7.173  -5.993  0.00  0.00    -0.001 A 
ATOM     18  C   UNL     1       2.799   6.414  -4.939  0.00  0.00    +0.037 A 
ENDROOT
BRANCH   1  20
ATOM     19  C   UNL     1       4.003   4.936  -2.746  0.00  0.00    +0.252 C 
ATOM     20  O   UNL     1       3.951   4.550  -4.097  0.00  0.00    -0.471 OA
ENDBRANCH   1  20
TORSDOF 1
ENDMDL
MODEL 2
REMARK VINA RESULT:      -7.1      2.037      4.937
REMARK  Name = 
REMARK  1 active torsions:
REMARK  status: ('A' for Active; 'I' for Inactive)
REMARK    1  A    between atoms: O_2  and  C_3
REMARK                            x       y       z     vdW  Elec       q    Type
REMARK                         _______ _______ _______ _____ _____    ______ ____
ROOT
ATOM      1  C   UNL     1       3.729   5.823  -9.596  0.00  0.00    +0.138 A 
ATOM      2  C   UNL     1       3.816   6.251  -8.286  0.00  0.00    +0.032 A 
ATOM      3  C   UNL     1       3.480   5.436  -7.202  0.00  0.00    -0.024 A 
ATOM      4  C   UNL     1       3.306   6.118  -6.015  0.00  0.00    +0.021 C 
ATOM      5  C   UNL     1       2.561   7.437  -6.235  0.00  0.00    +0.021 C 
ATOM      6  C   UNL     1       1.105   6.973  -6.259  0.00  0.00    +0.072 C 
ATOM      7  N   UNL     1       1.009   5.646  -6.785  0.00  0.00    -0.272 NA
ATOM      8  C   UNL     1      -0.410   5.435  -7.062  0.00  0.00    +0.090 C 
ATOM      9  C   UNL     1       1.251   4.627  -5.624  0.00  0.00    +0.062 C 
ATOM     10  C   UNL     1       2.265   3.625  -6.411  0.00  0.00    +0.042 C 
ATOM     11  C   UNL     1       2.419   5.576  -4.808  0.00  0.00    +0.019 C 
ATOM     12  C   UNL     1       3.421   4.347  -4.435  0.00  0.00    +0.002 C 
ATOM     13  C   UNL     1       4.276   5.022  -3.364  0.00  0.00    +0.000 C 
ATOM     14  C   UNL     1       4.585   6.420  -3.886  0.00  0.00    +0.000 C 
ATOM     15  C   UNL     1       4.641   6.407  -5.383  0.00  0.00    +0.004 C 
ATOM     16  C   UNL     1       2.825   4.269  -7.572  0.00  0.00    -0.025 A 
ATOM     17  C   UNL     1       2.538   3.915  -8.857  0.00  0.00    -0.001 A 
ATOM     18  C   UNL     1       3.015   4.684  -9.881  0.00  0.00    +0.037 A 
ENDROOT
BRANCH   1  20
ATOM     19  C   UNL     1       5.154   7.343 -10.902  0.00  0.00    +0.252 C 
ATOM     20  O   UNL     1       3.926   6.699 -10.670  0.00  0.00    -0.471 OA
ENDBRANCH   1  20
TORSDOF 1
ENDMDL
MODEL 3
REMARK VINA RESULT:      -7.0      1.979      4.545
REMARK  Name = 
REMARK  1 active torsions:
REMARK  status: ('A' for Active; 'I' for Inactive)
REMARK    1  A    between atoms: O_2  and  C_3
REMARK                            x       y       z     vdW  Elec       q    Type
REMARK                         _______ _______ _______ _____ _____    ______ ____
ROOT
ATOM      1  C   UNL     1       3.764   6.702  -3.619  0.00  0.00    +0.138 A 
ATOM      2  C   UNL     1       2.630   6.945  -4.368  0.00  0.00    +0.032 A 
ATOM      3  C   UNL     1       1.987   5.948  -5.107  0.00  0.00    -0.024 A 
ATOM      4  C   UNL     1       1.092   6.427  -6.042  0.00  0.00    +0.021 C 
ATOM      5  C   UNL     1       1.638   7.669  -6.750  0.00  0.00    +0.021 C 
ATOM      6  C   UNL     1       2.529   7.048  -7.825  0.00  0.00    +0.072 C 
ATOM      7  N   UNL     1       3.079   5.809  -7.368  0.00  0.00    -0.272 NA
ATOM      8  C   UNL     1       4.140   5.476  -8.315  0.00  0.00    +0.090 C 
ATOM      9  C   UNL     1       2.047   4.668  -7.650  0.00  0.00    +0.062 C 
ATOM     10  C   UNL     1       2.145   3.914  -6.210  0.00  0.00    +0.042 C 
ATOM     11  C   UNL     1       0.657   5.618  -7.342  0.00  0.00    +0.019 C 
ATOM     12  C   UNL     1      -0.168   4.473  -6.530  0.00  0.00    +0.002 C 
ATOM     13  C   UNL     1      -1.569   5.080  -6.569  0.00  0.00    +0.000 C 
ATOM     14  C   UNL     1      -1.395   6.566  -6.274  0.00  0.00    +0.000 C 
ATOM     15  C   UNL     1      -0.213   6.775  -5.378  0.00  0.00    +0.004 C 
ATOM     16  C   UNL     1       2.727   4.779  -5.216  0.00  0.00    -0.025 A 
ATOM     17  C   UNL     1       3.955   4.583  -4.656  0.00  0.00    -0.001 A 
ATOM     18  C   UNL     1       4.469   5.542  -3.829  0.00  0.00    +0.037 A 
ENDROOT
BRANCH   1  20
ATOM     19  C   UNL     1       3.953   8.484  -1.934  0.00  0.00    +0.252 C 
ATOM     20  O   UNL     1       4.477   7.741  -3.007  0.00  0.00    -0.471 OA
ENDBRANCH   1  20
TORSDOF 1
ENDMDL
MODEL 4
REMARK VINA RESULT:      -7.0      2.741      5.742
REMARK  Name = 
REMARK  1 active torsions:
REMARK  status: ('A' for Active; 'I' for Inactive)
REMARK    1  A    between atoms: O_2  and  C_3
REMARK                            x       y       z     vdW  Elec       q    Type
REMARK                         _______ _______ _______ _____ _____    ______ ____
ROOT
ATOM      1  C   UNL     1       0.784   5.326 -10.126  0.00  0.00    +0.138 A 
ATOM      2  C   UNL     1       0.282   5.115  -8.857  0.00  0.00    +0.032 A 
ATOM      3  C   UNL     1       0.499   6.005  -7.802  0.00  0.00    -0.024 A 
ATOM      4  C   UNL     1       0.221   5.482  -6.555  0.00  0.00    +0.021 C 
ATOM      5  C   UNL     1       0.701   4.034  -6.440  0.00  0.00    +0.021 C 
ATOM      6  C   UNL     1       2.179   4.219  -6.104  0.00  0.00    +0.072 C 
ATOM      7  N   UNL     1       2.684   5.417  -6.704  0.00  0.00    -0.272 NA
ATOM      8  C   UNL     1       4.138   5.328  -6.597  0.00  0.00    +0.090 C 
ATOM      9  C   UNL     1       2.379   6.621  -5.753  0.00  0.00    +0.062 C 
ATOM     10  C   UNL     1       1.832   7.663  -6.877  0.00  0.00    +0.042 C 
ATOM     11  C   UNL     1       0.870   6.025  -5.206  0.00  0.00    +0.019 C 
ATOM     12  C   UNL     1       0.090   7.455  -5.238  0.00  0.00    +0.002 C 
ATOM     13  C   UNL     1      -1.129   7.108  -4.386  0.00  0.00    +0.000 C 
ATOM     14  C   UNL     1      -1.586   5.726  -4.843  0.00  0.00    +0.000 C 
ATOM     15  C   UNL     1      -1.259   5.532  -6.292  0.00  0.00    +0.004 C 
ATOM     16  C   UNL     1       1.458   6.969  -8.083  0.00  0.00    -0.025 A 
ATOM     17  C   UNL     1       2.128   7.075  -9.266  0.00  0.00    -0.001 A 
ATOM     18  C   UNL     1       1.772   6.264 -10.307  0.00  0.00    +0.037 A 
ENDROOT
BRANCH   1  20
ATOM     19  C   UNL     1       0.547   4.683 -12.488  0.00  0.00    +0.252 C 
ATOM     20  O   UNL     1       0.683   4.353 -11.128  0.00  0.00    -0.471 OA
ENDBRANCH   1  20
TORSDOF 1
ENDMDL
MODEL 5
REMARK VINA RESULT:      -6.9      1.805      3.657
REMARK  Name = 
REMARK  1 active torsions:
REMARK  status: ('A' for Active; 'I' for Inactive)
REMARK    1  A    between atoms: O_2  and  C_3
REMARK                            x       y       z     vdW  Elec       q    Type
REMARK                         _______ _______ _______ _____ _____    ______ ____
ROOT
ATOM      1  C   UNL     1       1.398   5.883  -5.255  0.00  0.00    +0.138 A 
ATOM      2  C   UNL     1       1.162   6.288  -6.554  0.00  0.00    +0.032 A 
ATOM      3  C   UNL     1       1.348   5.445  -7.653  0.00  0.00    -0.024 A 
ATOM      4  C   UNL     1       1.393   6.100  -8.867  0.00  0.00    +0.021 C 
ATOM      5  C   UNL     1       2.185   7.405  -8.766  0.00  0.00    +0.021 C 
ATOM      6  C   UNL     1       3.623   6.909  -8.907  0.00  0.00    +0.072 C 
ATOM      7  N   UNL     1       3.755   5.591  -8.367  0.00  0.00    -0.272 NA
ATOM      8  C   UNL     1       5.192   5.353  -8.258  0.00  0.00    +0.090 C 
ATOM      9  C   UNL     1       3.355   4.555  -9.468  0.00  0.00    +0.062 C 
ATOM     10  C   UNL     1       2.423   3.592  -8.544  0.00  0.00    +0.042 C 
ATOM     11  C   UNL     1       2.116   5.515 -10.159  0.00  0.00    +0.019 C 
ATOM     12  C   UNL     1       1.053   4.302 -10.383  0.00  0.00    +0.002 C 
ATOM     13  C   UNL     1       0.089   4.975 -11.358  0.00  0.00    +0.000 C 
ATOM     14  C   UNL     1      -0.127   6.390 -10.833  0.00  0.00    +0.000 C 
ATOM     15  C   UNL     1      -0.002   6.407  -9.340  0.00  0.00    +0.004 C 
ATOM     16  C   UNL     1       2.019   4.270  -7.339  0.00  0.00    -0.025 A 
ATOM     17  C   UNL     1       2.452   3.935  -6.090  0.00  0.00    -0.001 A 
ATOM     18  C   UNL     1       2.118   4.734  -5.033  0.00  0.00    +0.037 A 
ENDROOT
BRANCH   1  20
ATOM     19  C   UNL     1       2.079   6.585  -2.999  0.00  0.00    +0.252 C 
ATOM     20  O   UNL     1       1.349   6.783  -4.184  0.00  0.00    -0.471 OA
ENDBRANCH   1  20
TORSDOF 1
ENDMDL
MODEL 6
REMARK VINA RESULT:      -6.7      2.760      4.986
REMARK  Name = 
REMARK  1 active torsions:
REMARK  status: ('A' for Active; 'I' for Inactive)
REMARK    1  A    between atoms: O_2  and  C_3
REMARK                            x       y       z     vdW  Elec       q    Type
REMARK                         _______ _______ _______ _____ _____    ______ ____
ROOT
ATOM      1  C   UNL     1       0.620   6.168 -11.651  0.00  0.00    +0.138 A 
ATOM      2  C   UNL     1       1.790   6.523 -11.009  0.00  0.00    +0.032 A 
ATOM      3  C   UNL     1       2.461   5.664 -10.135  0.00  0.00    -0.024 A 
ATOM      4  C   UNL     1       3.401   6.287  -9.341  0.00  0.00    +0.021 C 
ATOM      5  C   UNL     1       2.896   7.641  -8.839  0.00  0.00    +0.021 C 
ATOM      6  C   UNL     1       2.053   7.232  -7.632  0.00  0.00    +0.072 C 
ATOM      7  N   UNL     1       1.475   5.939  -7.838  0.00  0.00    -0.272 NA
ATOM      8  C   UNL     1       0.457   5.793  -6.801  0.00  0.00    +0.090 C 
ATOM      9  C   UNL     1       2.513   4.852  -7.406  0.00  0.00    +0.062 C 
ATOM     10  C   UNL     1       2.343   3.858  -8.685  0.00  0.00    +0.042 C 
ATOM     11  C   UNL     1       3.892   5.714  -7.939  0.00  0.00    +0.019 C 
ATOM     12  C   UNL     1       4.672   4.432  -8.573  0.00  0.00    +0.002 C 
ATOM     13  C   UNL     1       6.076   5.018  -8.705  0.00  0.00    +0.000 C 
ATOM     14  C   UNL     1       5.897   6.431  -9.250  0.00  0.00    +0.000 C 
ATOM     15  C   UNL     1       4.676   6.495 -10.114  0.00  0.00    +0.004 C 
ATOM     16  C   UNL     1       1.720   4.542  -9.788  0.00  0.00    -0.025 A 
ATOM     17  C   UNL     1       0.466   4.267 -10.249  0.00  0.00    -0.001 A 
ATOM     18  C   UNL     1      -0.081   5.073 -11.208  0.00  0.00    +0.037 A 
ENDROOT
BRANCH   1  20
ATOM     19  C   UNL     1       0.430   7.764 -13.513  0.00  0.00    +0.252 C 
ATOM     20  O   UNL     1      -0.115   7.093 -12.404  0.00  0.00    -0.471 OA
ENDBRANCH   1  20
TORSDOF 1
ENDMDL
MODEL 7
REMARK VINA RESULT:      -6.7      1.642      2.207
REMARK  Name = 
REMARK  1 active torsions:
REMARK  status: ('A' for Active; 'I' for Inactive)
REMARK    1  A    between atoms: O_2  and  C_3
REMARK                            x       y       z     vdW  Elec       q    Type
REMARK                         _______ _______ _______ _____ _____    ______ ____
ROOT
ATOM      1  C   UNL     1       4.135   5.428  -3.583  0.00  0.00    +0.138 A 
ATOM      2  C   UNL     1       3.983   4.946  -4.868  0.00  0.00    +0.032 A 
ATOM      3  C   UNL     1       3.444   5.714  -5.903  0.00  0.00    -0.024 A 
ATOM      4  C   UNL     1       3.060   4.982  -7.008  0.00  0.00    +0.021 C 
ATOM      5  C   UNL     1       2.383   3.672  -6.601  0.00  0.00    +0.021 C 
ATOM      6  C   UNL     1       0.952   4.131  -6.326  0.00  0.00    +0.072 C 
ATOM      7  N   UNL     1       0.941   5.478  -5.845  0.00  0.00    -0.272 NA
ATOM      8  C   UNL     1      -0.405   5.697  -5.319  0.00  0.00    +0.090 C 
ATOM      9  C   UNL     1       0.953   6.449  -7.071  0.00  0.00    +0.062 C 
ATOM     10  C   UNL     1       2.084   7.486  -6.527  0.00  0.00    +0.042 C 
ATOM     11  C   UNL     1       1.960   5.470  -8.051  0.00  0.00    +0.019 C 
ATOM     12  C   UNL     1       2.861   6.686  -8.653  0.00  0.00    +0.002 C 
ATOM     13  C   UNL     1       3.511   5.970  -9.835  0.00  0.00    +0.000 C 
ATOM     14  C   UNL     1       3.926   4.595  -9.323  0.00  0.00    +0.000 C 
ATOM     15  C   UNL     1       4.258   4.671  -7.864  0.00  0.00    +0.004 C 
ATOM     16  C   UNL     1       2.856   6.893  -5.466  0.00  0.00    -0.025 A 
ATOM     17  C   UNL     1       2.808   7.300  -4.164  0.00  0.00    -0.001 A 
ATOM     18  C   UNL     1       3.474   6.575  -3.216  0.00  0.00    +0.037 A 
ENDROOT
BRANCH   1  20
ATOM     19  C   UNL     1       3.996   4.707  -1.236  0.00  0.00    +0.252 C 
ATOM     20  O   UNL     1       4.537   4.598  -2.529  0.00  0.00    -0.471 OA
ENDBRANCH   1  20
TORSDOF 1
ENDMDL
MODEL 8
REMARK VINA RESULT:      -6.5      2.584      4.271
REMARK  Name = 
REMARK  1 active torsions:
REMARK  status: ('A' for Active; 'I' for Inactive)
REMARK    1  A    between atoms: O_2  and  C_3
REMARK                            x       y       z     vdW  Elec       q    Type
REMARK                         _______ _______ _______ _____ _____    ______ ____
ROOT
ATOM      1  C   UNL     1      -0.545   6.537  -4.773  0.00  0.00    +0.138 A 
ATOM      2  C   UNL     1      -0.179   6.649  -6.100  0.00  0.00    +0.032 A 
ATOM      3  C   UNL     1       0.587   5.682  -6.756  0.00  0.00    -0.024 A 
ATOM      4  C   UNL     1       1.132   6.107  -7.950  0.00  0.00    +0.021 C 
ATOM      5  C   UNL     1       1.648   7.544  -7.846  0.00  0.00    +0.021 C 
ATOM      6  C   UNL     1       3.024   7.338  -7.216  0.00  0.00    +0.072 C 
ATOM      7  N   UNL     1       3.017   6.191  -6.360  0.00  0.00    -0.272 NA
ATOM      8  C   UNL     1       4.249   6.276  -5.579  0.00  0.00    +0.090 C 
ATOM      9  C   UNL     1       3.290   4.917  -7.225  0.00  0.00    +0.062 C 
ATOM     10  C   UNL     1       2.134   3.962  -6.590  0.00  0.00    +0.042 C 
ATOM     11  C   UNL     1       2.434   5.465  -8.604  0.00  0.00    +0.019 C 
ATOM     12  C   UNL     1       1.730   4.039  -8.956  0.00  0.00    +0.002 C 
ATOM     13  C   UNL     1       1.278   4.316 -10.388  0.00  0.00    +0.000 C 
ATOM     14  C   UNL     1       0.699   5.727 -10.384  0.00  0.00    +0.000 C 
ATOM     15  C   UNL     1       0.102   6.033  -9.045  0.00  0.00    +0.004 C 
ATOM     16  C   UNL     1       1.145   4.745  -5.896  0.00  0.00    -0.025 A 
ATOM     17  C   UNL     1       0.969   4.732  -4.544  0.00  0.00    -0.001 A 
ATOM     18  C   UNL     1       0.097   5.619  -3.978  0.00  0.00    +0.037 A 
ENDROOT
BRANCH   1  20
ATOM     19  C   UNL     1      -2.190   7.359  -3.141  0.00  0.00    +0.252 C 
ATOM     20  O   UNL     1      -1.183   7.584  -4.096  0.00  0.00    -0.471 OA
ENDBRANCH   1  20
TORSDOF 1
ENDMDL
MODEL 9
REMARK VINA RESULT:      -6.5      2.846      4.341
REMARK  Name = 
REMARK  1 active torsions:
REMARK  status: ('A' for Active; 'I' for Inactive)
REMARK    1  A    between atoms: O_2  and  C_3
REMARK                            x       y       z     vdW  Elec       q    Type
REMARK                         _______ _______ _______ _____ _____    ______ ____
ROOT
ATOM      1  C   UNL     1      -1.013   5.767  -3.718  0.00  0.00    +0.138 A 
ATOM      2  C   UNL     1       0.280   5.339  -3.943  0.00  0.00    +0.032 A 
ATOM      3  C   UNL     1       1.201   6.079  -4.689  0.00  0.00    -0.024 A 
ATOM      4  C   UNL     1       2.310   5.362  -5.090  0.00  0.00    +0.021 C 
ATOM      5  C   UNL     1       1.928   3.950  -5.538  0.00  0.00    +0.021 C 
ATOM      6  C   UNL     1       1.481   4.190  -6.979  0.00  0.00    +0.072 C 
ATOM      7  N   UNL     1       0.910   5.494  -7.117  0.00  0.00    -0.272 NA
ATOM      8  C   UNL     1       0.238   5.494  -8.415  0.00  0.00    +0.090 C 
ATOM      9  C   UNL     1       2.061   6.522  -7.368  0.00  0.00    +0.062 C 
ATOM     10  C   UNL     1       1.563   7.676  -6.332  0.00  0.00    +0.042 C 
ATOM     11  C   UNL     1       3.201   5.748  -6.352  0.00  0.00    +0.019 C 
ATOM     12  C   UNL     1       3.805   7.109  -5.690  0.00  0.00    +0.002 C 
ATOM     13  C   UNL     1       5.093   6.556  -5.084  0.00  0.00    +0.000 C 
ATOM     14  C   UNL     1       4.721   5.226  -4.436  0.00  0.00    +0.000 C 
ATOM     15  C   UNL     1       3.301   5.268  -3.961  0.00  0.00    +0.004 C 
ATOM     16  C   UNL     1       0.627   7.140  -5.378  0.00  0.00    -0.025 A 
ATOM     17  C   UNL     1      -0.697   7.464  -5.338  0.00  0.00    -0.001 A 
ATOM     18  C   UNL     1      -1.522   6.789  -4.482  0.00  0.00    +0.037 A 
ENDROOT
BRANCH   1  20
ATOM     19  C   UNL     1      -3.332   5.259  -3.077  0.00  0.00    +0.252 C 
ATOM     20  O   UNL     1      -1.962   4.945  -3.098  0.00  0.00    -0.471 OA
ENDBRANCH   1  20
TORSDOF 1
ENDMDL
