MODEL 1
REMARK VINA RESULT:     -10.4      0.000      0.000
REMARK  Name = 
REMARK  6 active torsions:
REMARK  status: ('A' for Active; 'I' for Inactive)
REMARK    1  A    between atoms: C_9  and  C_10
REMARK    2  A    between atoms: C_20  and  C_21
REMARK    3  A    between atoms: C_21  and  C_23
REMARK    4  A    between atoms: C_23  and  C_24
REMARK    5  A    between atoms: C_24  and  C_25
REMARK    6  A    between atoms: C_25  and  C_26
REMARK                            x       y       z     vdW  Elec       q    Type
REMARK                         _______ _______ _______ _____ _____    ______ ____
ROOT
ATOM      1  C   UNL     1       5.092   5.743  -8.934  0.00  0.00    -0.009 C 
ATOM      2  C   UNL     1       4.079   5.333  -8.155  0.00  0.00    -0.045 C 
ATOM      3  C   UNL     1       3.065   6.527  -7.743  0.00  0.00    +0.018 C 
ATOM      4  C   UNL     1       3.595   6.572  -6.191  0.00  0.00    +0.004 C 
ATOM      5  C   UNL     1       2.341   6.804  -5.435  0.00  0.00    +0.000 C 
ATOM      6  C   UNL     1       1.166   6.764  -6.556  0.00  0.00    +0.000 C 
ATOM      7  C   UNL     1       1.865   5.500  -7.292  0.00  0.00    +0.003 C 
ATOM      8  C   UNL     1       2.353   4.566  -6.312  0.00  0.00    +0.000 C 
ATOM      9  C   UNL     1       1.194   5.141  -8.507  0.00  0.00    +0.001 C 
ATOM     10  C   UNL     1       2.166   4.540  -9.497  0.00  0.00    +0.004 C 
ATOM     11  C   UNL     1       3.393   4.131  -8.740  0.00  0.00    +0.022 C 
ENDROOT
BRANCH   1  15
ATOM     12  C   UNL     1       7.512   5.634  -9.373  0.00  0.00    -0.005 C 
ATOM     13  C   UNL     1       7.405   5.874 -10.584  0.00  0.00    -0.026 C 
ATOM     14  C   UNL     1       6.030   6.150 -11.022  0.00  0.00    -0.024 C 
ATOM     15  C   UNL     1       5.094   5.443 -10.381  0.00  0.00    -0.005 C 
ATOM     16  C   UNL     1       5.818   6.676 -12.406  0.00  0.00    +0.059 C 
ATOM     17  C   UNL     1       6.528   5.400 -13.202  0.00  0.00    +0.157 C 
ATOM     18  O   UNL     1       6.367   6.102 -14.551  0.00  0.00    -0.223 OA
ATOM     19  C   UNL     1       8.044   6.046 -12.982  0.00  0.00    +0.038 C 
ATOM     20  C   UNL     1       8.466   5.595 -11.603  0.00  0.00    +0.029 C 
ENDBRANCH   1  15
BRANCH   6  21
ATOM     21  C   UNL     1       0.188   5.771  -5.577  0.00  0.00    +0.000 C 
ATOM     22  C   UNL     1      -1.110   5.982  -6.533  0.00  0.00    +0.000 C 
BRANCH  21  23
ATOM     23  C   UNL     1      -0.226   6.997  -4.591  0.00  0.00    +0.000 C 
BRANCH  23  24
ATOM     24  C   UNL     1      -1.718   7.074  -4.562  0.00  0.00    +0.000 C 
BRANCH  24  25
ATOM     25  C   UNL     1      -2.266   7.446  -3.219  0.00  0.00    +0.000 C 
BRANCH  25  26
ATOM     26  C   UNL     1      -2.948   6.292  -2.511  0.00  0.00    +0.000 C 
ATOM     27  C   UNL     1      -2.034   5.739  -1.437  0.00  0.00    +0.000 C 
ATOM     28  C   UNL     1      -3.234   5.196  -3.530  0.00  0.00    +0.000 C 
ENDBRANCH  25  26
ENDBRANCH  24  25
ENDBRANCH  23  24
ENDBRANCH  21  23
ENDBRANCH   6  21
TORSDOF 6
ENDMDL
MODEL 2
REMARK VINA RESULT:      -9.8      3.192      9.758
REMARK  Name = 
REMARK  6 active torsions:
REMARK  status: ('A' for Active; 'I' for Inactive)
REMARK    1  A    between atoms: C_9  and  C_10
REMARK    2  A    between atoms: C_20  and  C_21
REMARK    3  A    between atoms: C_21  and  C_23
REMARK    4  A    between atoms: C_23  and  C_24
REMARK    5  A    between atoms: C_24  and  C_25
REMARK    6  A    between atoms: C_25  and  C_26
REMARK                            x       y       z     vdW  Elec       q    Type
REMARK                         _______ _______ _______ _____ _____    ______ ____
ROOT
ATOM      1  C   UNL     1      -0.204   5.716  -6.297  0.00  0.00    -0.009 C 
ATOM      2  C   UNL     1       0.789   5.228  -7.058  0.00  0.00    -0.045 C 
ATOM      3  C   UNL     1       1.772   6.377  -7.640  0.00  0.00    +0.018 C 
ATOM      4  C   UNL     1       1.190   6.238  -9.167  0.00  0.00    +0.004 C 
ATOM      5  C   UNL     1       2.415   6.393  -9.988  0.00  0.00    +0.000 C 
ATOM      6  C   UNL     1       3.626   6.495  -8.911  0.00  0.00    +0.000 C 
ATOM      7  C   UNL     1       2.971   5.317  -8.011  0.00  0.00    +0.003 C 
ATOM      8  C   UNL     1       2.463   4.272  -8.860  0.00  0.00    +0.000 C 
ATOM      9  C   UNL     1       3.686   5.108  -6.787  0.00  0.00    +0.001 C 
ATOM     10  C   UNL     1       2.757   4.615  -5.701  0.00  0.00    +0.004 C 
ATOM     11  C   UNL     1       1.510   4.109  -6.363  0.00  0.00    +0.022 C 
ENDROOT
BRANCH   1  15
ATOM     12  C   UNL     1      -2.588   5.373  -5.788  0.00  0.00    -0.005 C 
ATOM     13  C   UNL     1      -2.497   5.761  -4.615  0.00  0.00    -0.026 C 
ATOM     14  C   UNL     1      -1.160   6.245  -4.245  0.00  0.00    -0.024 C 
ATOM     15  C   UNL     1      -0.153   5.584  -4.826  0.00  0.00    -0.005 C 
ATOM     16  C   UNL     1      -0.996   6.947  -2.934  0.00  0.00    +0.059 C 
ATOM     17  C   UNL     1      -1.540   5.695  -1.983  0.00  0.00    +0.157 C 
ATOM     18  O   UNL     1      -1.448   6.561  -0.725  0.00  0.00    -0.223 OA
ATOM     19  C   UNL     1      -3.124   6.129  -2.237  0.00  0.00    +0.038 C 
ATOM     20  C   UNL     1      -3.505   5.477  -3.545  0.00  0.00    +0.029 C 
ENDBRANCH   1  15
BRANCH   6  21
ATOM     21  C   UNL     1       4.585   5.405  -9.803  0.00  0.00    +0.000 C 
ATOM     22  C   UNL     1       5.915   5.751  -8.935  0.00  0.00    +0.000 C 
BRANCH  21  23
ATOM     23  C   UNL     1       4.935   6.508 -10.947  0.00  0.00    +0.000 C 
BRANCH  23  24
ATOM     24  C   UNL     1       6.396   6.805 -10.861  0.00  0.00    +0.000 C 
BRANCH  24  25
ATOM     25  C   UNL     1       6.986   7.256 -12.162  0.00  0.00    +0.000 C 
BRANCH  25  26
ATOM     26  C   UNL     1       7.949   6.251 -12.762  0.00  0.00    +0.000 C 
ATOM     27  C   UNL     1       7.218   5.375 -13.759  0.00  0.00    +0.000 C 
ATOM     28  C   UNL     1       8.499   5.375 -11.643  0.00  0.00    +0.000 C 
ENDBRANCH  25  26
ENDBRANCH  24  25
ENDBRANCH  23  24
ENDBRANCH  21  23
ENDBRANCH   6  21
TORSDOF 6
ENDMDL
MODEL 3
REMARK VINA RESULT:      -9.7      0.938      1.277
REMARK  Name = 
REMARK  6 active torsions:
REMARK  status: ('A' for Active; 'I' for Inactive)
REMARK    1  A    between atoms: C_9  and  C_10
REMARK    2  A    between atoms: C_20  and  C_21
REMARK    3  A    between atoms: C_21  and  C_23
REMARK    4  A    between atoms: C_23  and  C_24
REMARK    5  A    between atoms: C_24  and  C_25
REMARK    6  A    between atoms: C_25  and  C_26
REMARK                            x       y       z     vdW  Elec       q    Type
REMARK                         _______ _______ _______ _____ _____    ______ ____
ROOT
ATOM      1  C   UNL     1       4.642   5.768  -8.641  0.00  0.00    -0.009 C 
ATOM      2  C   UNL     1       3.577   5.279  -7.987  0.00  0.00    -0.045 C 
ATOM      3  C   UNL     1       2.548   6.428  -7.492  0.00  0.00    +0.018 C 
ATOM      4  C   UNL     1       2.976   6.269  -5.916  0.00  0.00    +0.004 C 
ATOM      5  C   UNL     1       1.677   6.424  -5.218  0.00  0.00    +0.000 C 
ATOM      6  C   UNL     1       0.578   6.545  -6.408  0.00  0.00    +0.000 C 
ATOM      7  C   UNL     1       1.312   5.373  -7.251  0.00  0.00    +0.003 C 
ATOM      8  C   UNL     1       1.728   4.315  -6.369  0.00  0.00    +0.000 C 
ATOM      9  C   UNL     1       0.719   5.180  -8.542  0.00  0.00    +0.001 C 
ATOM     10  C   UNL     1       1.749   4.692  -9.537  0.00  0.00    +0.004 C 
ATOM     11  C   UNL     1       2.921   4.172  -8.761  0.00  0.00    +0.022 C 
ENDROOT
BRANCH   1  15
ATOM     12  C   UNL     1       7.068   5.456  -8.920  0.00  0.00    -0.005 C 
ATOM     13  C   UNL     1       7.086   5.855 -10.093  0.00  0.00    -0.026 C 
ATOM     14  C   UNL     1       5.786   6.329 -10.586  0.00  0.00    -0.024 C 
ATOM     15  C   UNL     1       4.736   5.652 -10.112  0.00  0.00    -0.005 C 
ATOM     16  C   UNL     1       5.742   7.043 -11.899  0.00  0.00    +0.059 C 
ATOM     17  C   UNL     1       6.390   5.808 -12.805  0.00  0.00    +0.157 C 
ATOM     18  O   UNL     1       6.410   6.686 -14.057  0.00  0.00    -0.223 OA
ATOM     19  C   UNL     1       7.937   6.256 -12.395  0.00  0.00    +0.038 C 
ATOM     20  C   UNL     1       8.197   5.594 -11.062  0.00  0.00    +0.029 C 
ENDBRANCH   1  15
BRANCH   6  21
ATOM     21  C   UNL     1      -0.470   5.453  -5.626  0.00  0.00    +0.000 C 
ATOM     22  C   UNL     1      -1.691   5.780  -6.648  0.00  0.00    +0.000 C 
BRANCH  21  23
ATOM     23  C   UNL     1      -0.962   6.561  -4.541  0.00  0.00    +0.000 C 
BRANCH  23  24
ATOM     24  C   UNL     1      -2.137   5.993  -3.813  0.00  0.00    +0.000 C 
BRANCH  24  25
ATOM     25  C   UNL     1      -1.781   5.407  -2.481  0.00  0.00    +0.000 C 
BRANCH  25  26
ATOM     26  C   UNL     1      -0.545   6.032  -1.865  0.00  0.00    +0.000 C 
ATOM     27  C   UNL     1       0.503   4.964  -1.626  0.00  0.00    +0.000 C 
ATOM     28  C   UNL     1      -0.929   6.657  -0.529  0.00  0.00    +0.000 C 
ENDBRANCH  25  26
ENDBRANCH  24  25
ENDBRANCH  23  24
ENDBRANCH  21  23
ENDBRANCH   6  21
TORSDOF 6
ENDMDL
MODEL 4
REMARK VINA RESULT:      -9.4      3.028      9.500
REMARK  Name = 
REMARK  6 active torsions:
REMARK  status: ('A' for Active; 'I' for Inactive)
REMARK    1  A    between atoms: C_9  and  C_10
REMARK    2  A    between atoms: C_20  and  C_21
REMARK    3  A    between atoms: C_21  and  C_23
REMARK    4  A    between atoms: C_23  and  C_24
REMARK    5  A    between atoms: C_24  and  C_25
REMARK    6  A    between atoms: C_25  and  C_26
REMARK                            x       y       z     vdW  Elec       q    Type
REMARK                         _______ _______ _______ _____ _____    ______ ____
ROOT
ATOM      1  C   UNL     1       0.952   6.059  -7.642  0.00  0.00    -0.009 C 
ATOM      2  C   UNL     1       2.056   5.548  -8.209  0.00  0.00    -0.045 C 
ATOM      3  C   UNL     1       3.086   6.680  -8.739  0.00  0.00    +0.018 C 
ATOM      4  C   UNL     1       2.736   6.398 -10.316  0.00  0.00    +0.004 C 
ATOM      5  C   UNL     1       4.064   6.530 -10.963  0.00  0.00    +0.000 C 
ATOM      6  C   UNL     1       5.103   6.761  -9.736  0.00  0.00    +0.000 C 
ATOM      7  C   UNL     1       4.350   5.637  -8.843  0.00  0.00    +0.003 C 
ATOM      8  C   UNL     1       3.997   4.509  -9.664  0.00  0.00    +0.000 C 
ATOM      9  C   UNL     1       4.885   5.552  -7.516  0.00  0.00    +0.001 C 
ATOM     10  C   UNL     1       3.818   5.115  -6.537  0.00  0.00    +0.004 C 
ATOM     11  C   UNL     1       2.694   4.514  -7.325  0.00  0.00    +0.022 C 
ENDROOT
BRANCH   1  15
ATOM     12  C   UNL     1      -1.360   5.237  -7.444  0.00  0.00    -0.005 C 
ATOM     13  C   UNL     1      -1.542   5.719  -6.317  0.00  0.00    -0.026 C 
ATOM     14  C   UNL     1      -0.412   6.511  -5.813  0.00  0.00    -0.024 C 
ATOM     15  C   UNL     1       0.790   6.048  -6.173  0.00  0.00    -0.005 C 
ATOM     16  C   UNL     1      -0.611   7.324  -4.573  0.00  0.00    +0.059 C 
ATOM     17  C   UNL     1      -1.030   6.055  -3.583  0.00  0.00    +0.157 C 
ATOM     18  O   UNL     1      -1.323   7.008  -2.423  0.00  0.00    -0.223 OA
ATOM     19  C   UNL     1      -2.608   6.110  -4.104  0.00  0.00    +0.038 C 
ATOM     20  C   UNL     1      -2.629   5.298  -5.377  0.00  0.00    +0.029 C 
ENDBRANCH   1  15
BRANCH   6  21
ATOM     21  C   UNL     1       6.207   5.638 -10.386  0.00  0.00    +0.000 C 
ATOM     22  C   UNL     1       7.338   5.998  -9.275  0.00  0.00    +0.000 C 
BRANCH  21  23
ATOM     23  C   UNL     1       6.796   6.705 -11.464  0.00  0.00    +0.000 C 
BRANCH  23  24
ATOM     24  C   UNL     1       7.747   5.973 -12.354  0.00  0.00    +0.000 C 
BRANCH  24  25
ATOM     25  C   UNL     1       7.172   5.656 -13.700  0.00  0.00    +0.000 C 
BRANCH  25  26
ATOM     26  C   UNL     1       6.210   6.714 -14.203  0.00  0.00    +0.000 C 
ATOM     27  C   UNL     1       4.848   6.094 -14.443  0.00  0.00    +0.000 C 
ATOM     28  C   UNL     1       6.740   7.270 -15.519  0.00  0.00    +0.000 C 
ENDBRANCH  25  26
ENDBRANCH  24  25
ENDBRANCH  23  24
ENDBRANCH  21  23
ENDBRANCH   6  21
TORSDOF 6
ENDMDL
MODEL 5
REMARK VINA RESULT:      -9.2      2.869      4.347
REMARK  Name = 
REMARK  6 active torsions:
REMARK  status: ('A' for Active; 'I' for Inactive)
REMARK    1  A    between atoms: C_9  and  C_10
REMARK    2  A    between atoms: C_20  and  C_21
REMARK    3  A    between atoms: C_21  and  C_23
REMARK    4  A    between atoms: C_23  and  C_24
REMARK    5  A    between atoms: C_24  and  C_25
REMARK    6  A    between atoms: C_25  and  C_26
REMARK                            x       y       z     vdW  Elec       q    Type
REMARK                         _______ _______ _______ _____ _____    ______ ____
ROOT
ATOM      1  C   UNL     1       0.290   5.758  -9.563  0.00  0.00    -0.009 C 
ATOM      2  C   UNL     1       0.550   6.243  -8.338  0.00  0.00    -0.045 C 
ATOM      3  C   UNL     1       0.602   5.097  -7.195  0.00  0.00    +0.018 C 
ATOM      4  C   UNL     1      -0.830   5.551  -6.537  0.00  0.00    +0.004 C 
ATOM      5  C   UNL     1      -0.577   5.388  -5.085  0.00  0.00    +0.000 C 
ATOM      6  C   UNL     1       0.989   4.970  -4.980  0.00  0.00    +0.000 C 
ATOM      7  C   UNL     1       1.389   6.054  -6.116  0.00  0.00    +0.003 C 
ATOM      8  C   UNL     1       0.658   7.276  -5.912  0.00  0.00    +0.000 C 
ATOM      9  C   UNL     1       2.774   5.975  -6.477  0.00  0.00    +0.001 C 
ATOM     10  C   UNL     1       2.977   6.390  -7.916  0.00  0.00    +0.004 C 
ATOM     11  C   UNL     1       1.754   7.140  -8.351  0.00  0.00    +0.022 C 
ENDROOT
BRANCH   1  15
ATOM     12  C   UNL     1      -0.468   7.394 -11.239  0.00  0.00    -0.005 C 
ATOM     13  C   UNL     1       0.164   6.881 -12.173  0.00  0.00    -0.026 C 
ATOM     14  C   UNL     1       0.877   5.649 -11.810  0.00  0.00    -0.024 C 
ATOM     15  C   UNL     1       1.368   5.641 -10.567  0.00  0.00    -0.005 C 
ATOM     16  C   UNL     1       1.477   4.827 -12.906  0.00  0.00    +0.059 C 
ATOM     17  C   UNL     1       2.469   6.017 -13.510  0.00  0.00    +0.157 C 
ATOM     18  O   UNL     1       2.911   5.116 -14.664  0.00  0.00    -0.223 OA
ATOM     19  C   UNL     1       1.228   6.659 -14.410  0.00  0.00    +0.038 C 
ATOM     20  C   UNL     1       0.486   7.572 -13.461  0.00  0.00    +0.029 C 
ENDBRANCH   1  15
BRANCH   6  21
ATOM     21  C   UNL     1       1.255   6.070  -3.706  0.00  0.00    +0.000 C 
ATOM     22  C   UNL     1       2.670   5.376  -3.306  0.00  0.00    +0.000 C 
BRANCH  21  23
ATOM     23  C   UNL     1       0.412   5.177  -2.639  0.00  0.00    +0.000 C 
BRANCH  23  24
ATOM     24  C   UNL     1      -0.286   6.117  -1.711  0.00  0.00    +0.000 C 
BRANCH  24  25
ATOM     25  C   UNL     1      -1.685   5.694  -1.382  0.00  0.00    +0.000 C 
BRANCH  25  26
ATOM     26  C   UNL     1      -2.741   6.577  -2.019  0.00  0.00    +0.000 C 
ATOM     27  C   UNL     1      -3.525   5.780  -3.041  0.00  0.00    +0.000 C 
ATOM     28  C   UNL     1      -2.046   7.738  -2.722  0.00  0.00    +0.000 C 
ENDBRANCH  25  26
ENDBRANCH  24  25
ENDBRANCH  23  24
ENDBRANCH  21  23
ENDBRANCH   6  21
TORSDOF 6
ENDMDL
MODEL 6
REMARK VINA RESULT:      -9.0      3.534      9.378
REMARK  Name = 
REMARK  6 active torsions:
REMARK  status: ('A' for Active; 'I' for Inactive)
REMARK    1  A    between atoms: C_9  and  C_10
REMARK    2  A    between atoms: C_20  and  C_21
REMARK    3  A    between atoms: C_21  and  C_23
REMARK    4  A    between atoms: C_23  and  C_24
REMARK    5  A    between atoms: C_24  and  C_25
REMARK    6  A    between atoms: C_25  and  C_26
REMARK                            x       y       z     vdW  Elec       q    Type
REMARK                         _______ _______ _______ _____ _____    ______ ____
ROOT
ATOM      1  C   UNL     1      -0.440   6.280  -6.751  0.00  0.00    -0.009 C 
ATOM      2  C   UNL     1       0.519   5.655  -7.452  0.00  0.00    -0.045 C 
ATOM      3  C   UNL     1       1.443   6.668  -8.315  0.00  0.00    +0.018 C 
ATOM      4  C   UNL     1       0.780   6.211  -9.744  0.00  0.00    +0.004 C 
ATOM      5  C   UNL     1       1.954   6.205 -10.649  0.00  0.00    +0.000 C 
ATOM      6  C   UNL     1       3.221   6.538  -9.690  0.00  0.00    +0.000 C 
ATOM      7  C   UNL     1       2.642   5.566  -8.530  0.00  0.00    +0.003 C 
ATOM      8  C   UNL     1       2.110   4.363  -9.114  0.00  0.00    +0.000 C 
ATOM      9  C   UNL     1       3.429   5.620  -7.333  0.00  0.00    +0.001 C 
ATOM     10  C   UNL     1       2.572   5.353  -6.117  0.00  0.00    +0.004 C 
ATOM     11  C   UNL     1       1.301   4.711  -6.586  0.00  0.00    +0.022 C 
ENDROOT
BRANCH   1  15
ATOM     12  C   UNL     1      -2.465   5.123  -5.964  0.00  0.00    -0.005 C 
ATOM     13  C   UNL     1      -2.511   5.726  -4.882  0.00  0.00    -0.026 C 
ATOM     14  C   UNL     1      -1.479   6.759  -4.727  0.00  0.00    -0.024 C 
ATOM     15  C   UNL     1      -0.305   6.456  -5.289  0.00  0.00    -0.005 C 
ATOM     16  C   UNL     1      -1.584   7.699  -3.568  0.00  0.00    +0.059 C 
ATOM     17  C   UNL     1      -1.548   6.536  -2.380  0.00  0.00    +0.157 C 
ATOM     18  O   UNL     1      -1.786   7.584  -1.292  0.00  0.00    -0.223 OA
ATOM     19  C   UNL     1      -3.177   6.251  -2.544  0.00  0.00    +0.038 C 
ATOM     20  C   UNL     1      -3.291   5.271  -3.688  0.00  0.00    +0.029 C 
ENDBRANCH   1  15
BRANCH   6  21
ATOM     21  C   UNL     1       4.152   5.297 -10.394  0.00  0.00    +0.000 C 
ATOM     22  C   UNL     1       5.534   5.875  -9.761  0.00  0.00    +0.000 C 
BRANCH  21  23
ATOM     23  C   UNL     1       4.345   6.110 -11.790  0.00  0.00    +0.000 C 
BRANCH  23  24
ATOM     24  C   UNL     1       4.532   5.104 -12.879  0.00  0.00    +0.000 C 
BRANCH  24  25
ATOM     25  C   UNL     1       3.720   5.400 -14.103  0.00  0.00    +0.000 C 
BRANCH  25  26
ATOM     26  C   UNL     1       2.259   5.668 -13.799  0.00  0.00    +0.000 C 
ATOM     27  C   UNL     1       1.464   4.386 -13.939  0.00  0.00    +0.000 C 
ATOM     28  C   UNL     1       1.732   6.690 -14.799  0.00  0.00    +0.000 C 
ENDBRANCH  25  26
ENDBRANCH  24  25
ENDBRANCH  23  24
ENDBRANCH  21  23
ENDBRANCH   6  21
TORSDOF 6
ENDMDL
MODEL 7
REMARK VINA RESULT:      -8.6      3.814      8.816
REMARK  Name = 
REMARK  6 active torsions:
REMARK  status: ('A' for Active; 'I' for Inactive)
REMARK    1  A    between atoms: C_9  and  C_10
REMARK    2  A    between atoms: C_20  and  C_21
REMARK    3  A    between atoms: C_21  and  C_23
REMARK    4  A    between atoms: C_23  and  C_24
REMARK    5  A    between atoms: C_24  and  C_25
REMARK    6  A    between atoms: C_25  and  C_26
REMARK                            x       y       z     vdW  Elec       q    Type
REMARK                         _______ _______ _______ _____ _____    ______ ____
ROOT
ATOM      1  C   UNL     1       4.282   5.717  -5.601  0.00  0.00    -0.009 C 
ATOM      2  C   UNL     1       4.003   6.218  -6.816  0.00  0.00    -0.045 C 
ATOM      3  C   UNL     1       3.745   5.075  -7.934  0.00  0.00    +0.018 C 
ATOM      4  C   UNL     1       5.177   5.351  -8.686  0.00  0.00    +0.004 C 
ATOM      5  C   UNL     1       4.816   5.206 -10.117  0.00  0.00    +0.000 C 
ATOM      6  C   UNL     1       3.208   4.974 -10.118  0.00  0.00    +0.000 C 
ATOM      7  C   UNL     1       3.010   6.109  -8.978  0.00  0.00    +0.003 C 
ATOM      8  C   UNL     1       3.865   7.234  -9.247  0.00  0.00    +0.000 C 
ATOM      9  C   UNL     1       1.650   6.197  -8.532  0.00  0.00    +0.001 C 
ATOM     10  C   UNL     1       1.589   6.647  -7.090  0.00  0.00    +0.004 C 
ATOM     11  C   UNL     1       2.916   7.252  -6.744  0.00  0.00    +0.022 C 
ENDROOT
BRANCH   1  15
ATOM     12  C   UNL     1       5.324   7.279  -4.009  0.00  0.00    -0.005 C 
ATOM     13  C   UNL     1       4.698   6.855  -3.028  0.00  0.00    -0.026 C 
ATOM     14  C   UNL     1       3.829   5.707  -3.321  0.00  0.00    -0.024 C 
ATOM     15  C   UNL     1       3.263   5.738  -4.531  0.00  0.00    -0.005 C 
ATOM     16  C   UNL     1       3.210   4.974  -2.173  0.00  0.00    +0.059 C 
ATOM     17  C   UNL     1       2.400   6.278  -1.534  0.00  0.00    +0.157 C 
ATOM     18  O   UNL     1       1.932   5.449  -0.337  0.00  0.00    -0.223 OA
ATOM     19  C   UNL     1       3.760   6.786  -0.725  0.00  0.00    +0.038 C 
ATOM     20  C   UNL     1       4.538   7.595  -1.736  0.00  0.00    +0.029 C 
ENDBRANCH   1  15
BRANCH   6  21
ATOM     21  C   UNL     1       2.993   6.086 -11.391  0.00  0.00    +0.000 C 
ATOM     22  C   UNL     1       1.548   5.459 -11.792  0.00  0.00    +0.000 C 
BRANCH  21  23
ATOM     23  C   UNL     1       3.794   5.155 -12.459  0.00  0.00    +0.000 C 
BRANCH  23  24
ATOM     24  C   UNL     1       4.605   6.059 -13.331  0.00  0.00    +0.000 C 
BRANCH  24  25
ATOM     25  C   UNL     1       5.968   5.518 -13.638  0.00  0.00    +0.000 C 
BRANCH  25  26
ATOM     26  C   UNL     1       7.089   6.425 -13.171  0.00  0.00    +0.000 C 
ATOM     27  C   UNL     1       8.106   5.620 -12.389  0.00  0.00    +0.000 C 
ATOM     28  C   UNL     1       6.502   7.499 -12.263  0.00  0.00    +0.000 C 
ENDBRANCH  25  26
ENDBRANCH  24  25
ENDBRANCH  23  24
ENDBRANCH  21  23
ENDBRANCH   6  21
TORSDOF 6
ENDMDL
MODEL 8
REMARK VINA RESULT:      -8.6      4.016      5.405
REMARK  Name = 
REMARK  6 active torsions:
REMARK  status: ('A' for Active; 'I' for Inactive)
REMARK    1  A    between atoms: C_9  and  C_10
REMARK    2  A    between atoms: C_20  and  C_21
REMARK    3  A    between atoms: C_21  and  C_23
REMARK    4  A    between atoms: C_23  and  C_24
REMARK    5  A    between atoms: C_24  and  C_25
REMARK    6  A    between atoms: C_25  and  C_26
REMARK                            x       y       z     vdW  Elec       q    Type
REMARK                         _______ _______ _______ _____ _____    ______ ____
ROOT
ATOM      1  C   UNL     1       3.825   5.924  -7.344  0.00  0.00    -0.009 C 
ATOM      2  C   UNL     1       3.884   5.650  -6.031  0.00  0.00    -0.045 C 
ATOM      3  C   UNL     1       3.601   6.941  -5.095  0.00  0.00    +0.018 C 
ATOM      4  C   UNL     1       5.171   7.076  -4.640  0.00  0.00    +0.004 C 
ATOM      5  C   UNL     1       5.054   7.455  -3.211  0.00  0.00    +0.000 C 
ATOM      6  C   UNL     1       3.462   7.405  -2.896  0.00  0.00    +0.000 C 
ATOM      7  C   UNL     1       3.301   6.040  -3.755  0.00  0.00    +0.003 C 
ATOM      8  C   UNL     1       4.407   5.158  -3.492  0.00  0.00    +0.000 C 
ATOM      9  C   UNL     1       1.932   5.630  -3.870  0.00  0.00    +0.001 C 
ATOM     10  C   UNL     1       1.704   4.883  -5.165  0.00  0.00    +0.004 C 
ATOM     11  C   UNL     1       3.043   4.454  -5.685  0.00  0.00    +0.022 C 
ENDROOT
BRANCH   1  15
ATOM     12  C   UNL     1       4.725   6.158  -9.623  0.00  0.00    -0.005 C 
ATOM     13  C   UNL     1       3.614   6.275 -10.159  0.00  0.00    -0.026 C 
ATOM     14  C   UNL     1       2.491   6.294  -9.212  0.00  0.00    -0.024 C 
ATOM     15  C   UNL     1       2.655   5.506  -8.145  0.00  0.00    -0.005 C 
ATOM     16  C   UNL     1       1.135   6.662  -9.726  0.00  0.00    +0.059 C 
ATOM     17  C   UNL     1       1.031   5.450 -10.861  0.00  0.00    +0.157 C 
ATOM     18  O   UNL     1      -0.296   6.002 -11.384  0.00  0.00    -0.223 OA
ATOM     19  C   UNL     1       1.901   6.342 -11.961  0.00  0.00    +0.038 C 
ATOM     20  C   UNL     1       3.349   6.081 -11.620  0.00  0.00    +0.029 C 
ENDBRANCH   1  15
BRANCH   6  21
ATOM     21  C   UNL     1       3.720   6.566  -1.437  0.00  0.00    +0.000 C 
ATOM     22  C   UNL     1       2.231   6.915  -0.887  0.00  0.00    +0.000 C 
BRANCH  21  23
ATOM     23  C   UNL     1       4.390   7.857  -0.708  0.00  0.00    +0.000 C 
BRANCH  23  24
ATOM     24  C   UNL     1       4.166   7.716   0.763  0.00  0.00    +0.000 C 
BRANCH  24  25
ATOM     25  C   UNL     1       3.991   9.028   1.463  0.00  0.00    +0.000 C 
BRANCH  25  26
ATOM     26  C   UNL     1       3.485  10.129   0.551  0.00  0.00    +0.000 C 
ATOM     27  C   UNL     1       4.196  11.427   0.872  0.00  0.00    +0.000 C 
ATOM     28  C   UNL     1       1.990  10.310   0.790  0.00  0.00    +0.000 C 
ENDBRANCH  25  26
ENDBRANCH  24  25
ENDBRANCH  23  24
ENDBRANCH  21  23
ENDBRANCH   6  21
TORSDOF 6
ENDMDL
MODEL 9
REMARK VINA RESULT:      -8.5      4.667      9.021
REMARK  Name = 
REMARK  6 active torsions:
REMARK  status: ('A' for Active; 'I' for Inactive)
REMARK    1  A    between atoms: C_9  and  C_10
REMARK    2  A    between atoms: C_20  and  C_21
REMARK    3  A    between atoms: C_21  and  C_23
REMARK    4  A    between atoms: C_23  and  C_24
REMARK    5  A    between atoms: C_24  and  C_25
REMARK    6  A    between atoms: C_25  and  C_26
REMARK                            x       y       z     vdW  Elec       q    Type
REMARK                         _______ _______ _______ _____ _____    ______ ____
ROOT
ATOM      1  C   UNL     1       2.641   5.808  -1.737  0.00  0.00    -0.009 C 
ATOM      2  C   UNL     1       2.902   5.592  -3.035  0.00  0.00    -0.045 C 
ATOM      3  C   UNL     1       1.894   6.378  -4.030  0.00  0.00    +0.018 C 
ATOM      4  C   UNL     1       1.101   5.009  -4.465  0.00  0.00    +0.004 C 
ATOM      5  C   UNL     1       0.856   5.231  -5.911  0.00  0.00    +0.000 C 
ATOM      6  C   UNL     1       1.605   6.632  -6.249  0.00  0.00    +0.000 C 
ATOM      7  C   UNL     1       2.877   6.211  -5.336  0.00  0.00    +0.003 C 
ATOM      8  C   UNL     1       3.196   4.823  -5.543  0.00  0.00    +0.000 C 
ATOM      9  C   UNL     1       3.839   7.268  -5.226  0.00  0.00    +0.001 C 
ATOM     10  C   UNL     1       4.569   7.191  -3.904  0.00  0.00    +0.004 C 
ATOM     11  C   UNL     1       4.355   5.817  -3.344  0.00  0.00    +0.022 C 
ENDROOT
BRANCH   1  15
ATOM     12  C   UNL     1       1.012   6.665  -0.101  0.00  0.00    -0.005 C 
ATOM     13  C   UNL     1       1.657   7.692   0.153  0.00  0.00    -0.026 C 
ATOM     14  C   UNL     1       2.875   7.851  -0.652  0.00  0.00    -0.024 C 
ATOM     15  C   UNL     1       3.502   6.705  -0.938  0.00  0.00    -0.005 C 
ATOM     16  C   UNL     1       3.601   9.158  -0.593  0.00  0.00    +0.059 C 
ATOM     17  C   UNL     1       3.882   9.142   1.046  0.00  0.00    +0.157 C 
ATOM     18  O   UNL     1       4.491  10.543   0.994  0.00  0.00    -0.223 OA
ATOM     19  C   UNL     1       2.367   9.749   1.359  0.00  0.00    +0.038 C 
ATOM     20  C   UNL     1       1.455   8.544   1.368  0.00  0.00    +0.029 C 
ENDBRANCH   1  15
BRANCH   6  21
ATOM     21  C   UNL     1       2.293   5.986  -7.667  0.00  0.00    +0.000 C 
ATOM     22  C   UNL     1       2.502   7.458  -8.324  0.00  0.00    +0.000 C 
BRANCH  21  23
ATOM     23  C   UNL     1       0.846   5.773  -8.380  0.00  0.00    +0.000 C 
BRANCH  23  24
ATOM     24  C   UNL     1       1.071   5.019  -9.650  0.00  0.00    +0.000 C 
BRANCH  24  25
ATOM     25  C   UNL     1      -0.062   5.145 -10.621  0.00  0.00    +0.000 C 
BRANCH  25  26
ATOM     26  C   UNL     1       0.243   6.075 -11.779  0.00  0.00    +0.000 C 
ATOM     27  C   UNL     1       1.739   6.290 -11.881  0.00  0.00    +0.000 C 
ATOM     28  C   UNL     1      -0.434   7.415 -11.520  0.00  0.00    +0.000 C 
ENDBRANCH  25  26
ENDBRANCH  24  25
ENDBRANCH  23  24
ENDBRANCH  21  23
ENDBRANCH   6  21
TORSDOF 6
ENDMDL
